
  EPA STORM WATER MANAGEMENT MODEL - VERSION 5.1 (Build 5.1.015)
  --------------------------------------------------------------

  Testgebiet - 5-yr rainfall 
  
  WARNING 04: minimum elevation drop used for Conduit {590DDB8B-4031-469F-A633-0FFFEDCA1FCD}
  WARNING 08: elevation drop exceeds length for Conduit {578FD2D2-3EEB-4488-8B67-3599A3892E34}
  WARNING 08: elevation drop exceeds length for Conduit {A29E0197-E74F-4FB7-B492-4425086FCA8A}
  WARNING 02: maximum depth increased for Node {AF0BCDD2-9CCC-4826-BDB2-784CCB66B4F2}
  WARNING 02: maximum depth increased for Node {BEB8F4C7-F8A6-4378-B394-2BFC41D75CEE}
  WARNING 02: maximum depth increased for Node {8E7EBE63-D042-40E5-A637-1991E2D335E6}
  WARNING 02: maximum depth increased for Node {54FCA80C-E381-4063-BE5F-691E7CF2D58D}
  WARNING 02: maximum depth increased for Node {86F6B7CC-AD19-4D77-B304-B97694FA1B44}
  WARNING 02: maximum depth increased for Node {D2A5C3E3-979B-43E7-B315-A46199F5AB46}
  WARNING 02: maximum depth increased for Node {2450A6C4-F723-4D29-80FF-12E2B996B1E0}
  WARNING 02: maximum depth increased for Node {2D68C65C-F62D-4214-925B-85D287D72F98}
  WARNING 02: maximum depth increased for Node {E01EA186-B0FA-463E-8A01-DF108D43C89F}
  
  *********************************************************
  NOTE: The summary statistics displayed in this report are
  based on results found at every computational time step,  
  not just on results from each reporting time step.
  *********************************************************
  
  ****************
  Analysis Options
  ****************
  Flow Units ............... CMS
  Process Models:
    Rainfall/Runoff ........ YES
    RDII ................... NO
    Snowmelt ............... NO
    Groundwater ............ NO
    Flow Routing ........... YES
    Ponding Allowed ........ NO
    Water Quality .......... NO
  Infiltration Method ...... HORTON
  Flow Routing Method ...... DYNWAVE
  Surcharge Method ......... EXTRAN
  Starting Date ............ 06/17/2006 15:40:00
  Ending Date .............. 06/17/2006 18:20:00
  Antecedent Dry Days ...... 0.0
  Report Time Step ......... 00:01:00
  Wet Time Step ............ 00:01:00
  Dry Time Step ............ 00:01:00
  Routing Time Step ........ 15.00 sec
  Variable Time Step ....... YES
  Maximum Trials ........... 8
  Number of Threads ........ 1
  Head Tolerance ........... 0.001500 m
  
  
  **************************        Volume         Depth
  Runoff Quantity Continuity     hectare-m            mm
  **************************     ---------       -------
  Total Precipitation ......         0.226        33.402
  Evaporation Loss .........         0.000         0.000
  Infiltration Loss ........         0.009         1.269
  Surface Runoff ...........         0.216        31.895
  Final Storage ............         0.002         0.311
  Continuity Error (%) .....        -0.223
  
  
  **************************        Volume        Volume
  Flow Routing Continuity        hectare-m      10^6 ltr
  **************************     ---------     ---------
  Dry Weather Inflow .......         0.000         0.000
  Wet Weather Inflow .......         0.215         2.155
  Groundwater Inflow .......         0.000         0.000
  RDII Inflow ..............         0.000         0.000
  External Inflow ..........         0.000         0.000
  External Outflow .........         0.131         1.306
  Flooding Loss ............         0.085         0.846
  Evaporation Loss .........         0.000         0.000
  Exfiltration Loss ........         0.000         0.000
  Initial Stored Volume ....         0.000         0.000
  Final Stored Volume ......         0.000         0.003
  Continuity Error (%) .....         0.011
  
  
  ***************************
  Time-Step Critical Elements
  ***************************
  Link {BBA7DFD9-72CC-4B80-A78E-C5338D46538B}_u_l_u (85.57%)
  Link {4FB8AE3F-433C-48CE-8898-03E70DC0360C}_u_u_l (13.65%)
  
  
  ********************************
  Highest Flow Instability Indexes
  ********************************
  Link {7A344F50-9CCD-4273-9D82-D938DF03952C}_u_l_l_u (9)
  Link {7A344F50-9CCD-4273-9D82-D938DF03952C}_u_l_u (9)
  Link {7A344F50-9CCD-4273-9D82-D938DF03952C}_u_l_l_l (9)
  Link {55BA0FC1-B66A-469C-ABD8-54F96E022D71} (8)
  Link {8DFB895A-6675-4BDE-910E-F6BD440786A6} (8)
  
  
  *************************
  Routing Time Step Summary
  *************************
  Minimum Time Step           :     0.50 sec
  Average Time Step           :     0.50 sec
  Maximum Time Step           :    15.00 sec
  Percent in Steady State     :     0.00
  Average Iterations per Step :     2.61
  Percent Not Converging      :     6.33
  Time Step Frequencies       :
     15.000 -  7.597 sec      :     0.02 %
      7.597 -  3.848 sec      :     0.00 %
      3.848 -  1.949 sec      :     0.00 %
      1.949 -  0.987 sec      :     0.00 %
      0.987 -  0.500 sec      :    99.98 %
  
  
  ***************************
  Subcatchment Runoff Summary
  ***************************
  
  ------------------------------------------------------------------------------------------------------------------------------
                            Total      Total      Total      Total     Imperv       Perv      Total       Total     Peak  Runoff
                           Precip      Runon       Evap      Infil     Runoff     Runoff     Runoff      Runoff   Runoff   Coeff
  Subcatchment                 mm         mm         mm         mm         mm         mm         mm    10^6 ltr      CMS
  ------------------------------------------------------------------------------------------------------------------------------
  s1                        33.40       0.00       0.00       1.02      15.93      16.37      32.30        0.00     0.00   0.967
  s2                        33.40       0.00       0.00       0.17      30.47       2.74      33.21        0.01     0.00   0.994
  s3                        33.40       0.00       0.00       0.98      16.63      15.65      32.28        0.05     0.04   0.966
  s4                        33.40       0.00       0.00       0.89      18.21      14.24      32.45        0.00     0.00   0.972
  s5                        33.40       0.00       0.00       0.50      24.80       8.03      32.83        0.02     0.01   0.983
  s6                        33.40       0.00       0.00       1.38       9.93      21.83      31.76        0.08     0.06   0.951
  s7                        33.40       0.00       0.00       0.38      26.85       6.13      32.99        0.01     0.01   0.988
  s8                        33.40       0.00       0.00       1.73       3.88      27.50      31.38        0.05     0.04   0.940
  s9                        33.40       0.00       0.00       1.33      10.71      21.19      31.91        0.01     0.01   0.955
  s10                       33.40       0.00       0.00       0.00      33.41       0.00      33.41        0.00     0.00   1.000
  s11                       33.40       0.00       0.00       1.23      12.39      19.61      32.00        0.02     0.02   0.958
  s12                       33.40       0.00       0.00       1.05      15.53      16.75      32.28        0.00     0.00   0.966
  s13                       33.40       0.00       0.00       1.25      12.09      19.97      32.06        0.00     0.00   0.960
  s14                       33.40       0.00       0.00       0.71      21.36      11.29      32.65        0.00     0.00   0.977
  s15                       33.40       0.00       0.00       1.60       6.19      25.16      31.36        0.07     0.05   0.939
  s16                       33.40       0.00       0.00       0.74      20.70      11.89      32.59        0.01     0.01   0.976
  s17                       33.40       0.00       0.00       0.68      21.82      10.82      32.65        0.01     0.01   0.977
  s18                       33.40       0.00       0.00       0.00      33.40       0.00      33.40        0.00     0.00   1.000
  s19                       33.40       0.00       0.00       0.62      22.76       9.96      32.72        0.01     0.01   0.980
  s20                       33.40       0.00       0.00       0.00      33.40       0.00      33.40        0.00     0.00   1.000
  s21                       33.40       0.00       0.00       0.05      32.64       0.72      33.36        0.00     0.00   0.999
  s22                       33.40       0.00       0.00       0.00      33.41       0.00      33.41        0.00     0.00   1.000
  s23                       33.40       0.00       0.00       1.84       1.96      29.05      31.01        0.29     0.22   0.928
  s24                       33.40       0.00       0.00       0.64      22.42      10.28      32.70        0.01     0.01   0.979
  s25                       33.40       0.00       0.00       0.27      28.80       4.30      33.10        0.00     0.00   0.991
  s26                       33.40       0.00       0.00       1.39       9.65      22.15      31.79        0.05     0.05   0.952
  s27                       33.40       0.00       0.00       0.00      33.41       0.00      33.41        0.00     0.00   1.000
  s28                       33.40       0.00       0.00       0.03      32.94       0.42      33.36        0.01     0.00   0.999
  s29                       33.40       0.00       0.00       0.41      26.32       6.59      32.91        0.02     0.02   0.985
  s30                       33.40       0.00       0.00       1.15      13.77      18.34      32.11        0.02     0.01   0.961
  s31                       33.40       0.00       0.00       1.09      14.90      17.32      32.22        0.00     0.00   0.965
  s32                       33.40       0.00       0.00       1.40       9.32      22.57      31.89        0.00     0.00   0.955
  s33                       33.40       0.00       0.00       0.96      17.09      15.25      32.34        0.01     0.01   0.968
  s34                       33.40       0.00       0.00       0.06      32.25       1.04      33.30        0.01     0.01   0.997
  s35                       33.40       0.00       0.00       1.63       0.00      31.77      31.77        0.00     0.00   0.951
  s36                       33.40       0.00       0.00       0.87      18.58      13.89      32.47        0.00     0.00   0.972
  s37                       33.40       0.00       0.00       0.15      30.78       2.44      33.21        0.02     0.01   0.994
  s38                       33.40       0.00       0.00       0.36      27.18       5.79      32.97        0.03     0.03   0.987
  s39                       33.40       0.00       0.00       0.00      33.41       0.00      33.41        0.00     0.00   1.000
  s40                       33.40       0.00       0.00       0.27      28.86       4.25      33.11        0.01     0.01   0.991
  s41                       33.40       0.00       0.00       1.63       0.00      31.77      31.77        0.00     0.00   0.951
  s42                       33.40       0.00       0.00       0.00      33.42       0.00      33.42        0.00     0.00   1.000
  s43                       33.40       0.00       0.00       0.00      33.41       0.00      33.41        0.00     0.00   1.000
  s44                       33.40       0.00       0.00       1.17      13.38      18.75      32.13        0.00     0.00   0.962
  s45                       33.40       0.00       0.00       1.45       8.69      23.06      31.75        0.02     0.02   0.951
  s46                       33.40       0.00       0.00       0.00      33.41       0.00      33.41        0.00     0.00   1.000
  s47                       33.40       0.00       0.00       1.52       7.50      24.25      31.74        0.00     0.00   0.950
  s48                       33.40       0.00       0.00       0.00      33.41       0.00      33.41        0.00     0.00   1.000
  s49                       33.40       0.00       0.00       0.99      16.55      15.73      32.28        0.02     0.02   0.967
  s50                       33.40       0.00       0.00       0.41      26.32       6.62      32.94        0.01     0.01   0.986
  s51                       33.40       0.00       0.00       0.24      29.25       3.88      33.13        0.01     0.01   0.992
  s52                       33.40       0.00       0.00       0.94      17.30      15.05      32.34        0.01     0.01   0.968
  s53                       33.40       0.00       0.00       0.70      21.44      11.21      32.64        0.00     0.00   0.977
  s54                       33.40       0.00       0.00       0.71      21.29      11.33      32.63        0.01     0.01   0.977
  s55                       33.40       0.00       0.00       0.00      33.41       0.00      33.41        0.00     0.00   1.000
  s56                       33.40       0.00       0.00       0.00      33.42       0.00      33.42        0.00     0.00   1.000
  s57                       33.40       0.00       0.00       0.00      33.41       0.00      33.41        0.00     0.00   1.000
  s58                       33.40       0.00       0.00       0.15      30.79       2.45      33.23        0.00     0.00   0.995
  s59                       33.40       0.00       0.00       0.00      33.41       0.00      33.41        0.00     0.00   1.000
  s60                       33.40       0.00       0.00       0.00      33.41       0.00      33.41        0.00     0.00   1.000
  s61                       33.40       0.00       0.00       0.38      26.91       6.07      32.98        0.01     0.01   0.987
  s62                       33.40       0.00       0.00       0.79      19.88      12.65      32.54        0.00     0.00   0.974
  s63                       33.40       0.00       0.00       0.00      33.41       0.00      33.41        0.00     0.00   1.000
  s64                       33.40       0.00       0.00       0.00      33.41       0.00      33.41        0.00     0.00   1.000
  s65                       33.40       0.00       0.00       1.33      10.67      21.18      31.85        0.07     0.06   0.954
  s66                       33.40       0.00       0.00       0.00      33.41       0.00      33.41        0.00     0.00   1.000
  s67                       33.40       0.00       0.00       0.81      19.65      12.87      32.52        0.01     0.01   0.974
  s68                       33.40       0.00       0.00       0.58      23.48       9.29      32.78        0.01     0.00   0.981
  s69                       33.40       0.00       0.00       1.14      13.95      18.16      32.12        0.02     0.02   0.961
  s70                       33.40       0.00       0.00       0.00      33.41       0.00      33.41        0.00     0.00   1.000
  s71                       33.40       0.00       0.00       1.29      11.43      20.59      32.01        0.00     0.00   0.958
  s72                       33.40       0.00       0.00       1.63       0.00      31.77      31.77        0.00     0.00   0.951
  s73                       33.40       0.00       0.00       0.46      25.45       7.46      32.91        0.00     0.00   0.985
  s74                       33.40       0.00       0.00       1.02      15.95      16.36      32.31        0.00     0.00   0.967
  s75                       33.40       0.00       0.00       0.00      33.41       0.00      33.41        0.00     0.00   1.000
  s76                       33.40       0.00       0.00       0.01      33.14       0.19      33.33        0.02     0.02   0.998
  s77                       33.40       0.00       0.00       0.60      23.10       9.67      32.76        0.00     0.00   0.981
  s78                       33.40       0.00       0.00       0.53      24.44       8.39      32.83        0.01     0.01   0.983
  s79                       33.40       0.00       0.00       0.87      18.60      13.83      32.43        0.02     0.02   0.971
  s80                       33.40       0.00       0.00       0.00      33.41       0.00      33.41        0.00     0.00   1.000
  s81                       33.40       0.00       0.00       0.43      25.98       6.94      32.92        0.01     0.01   0.986
  s82                       33.40       0.00       0.00       0.99      16.47      15.83      32.30        0.01     0.01   0.967
  s83                       33.40       0.00       0.00       0.17      30.41       2.75      33.16        0.03     0.02   0.993
  s84                       33.40       0.00       0.00       1.63       0.00      31.77      31.77        0.00     0.00   0.951
  s85                       33.40       0.00       0.00       0.96      17.05      15.32      32.37        0.00     0.00   0.969
  s86                       33.40       0.00       0.00       0.92      17.67      14.72      32.39        0.01     0.01   0.970
  s87                       33.40       0.00       0.00       0.19      30.13       3.07      33.20        0.01     0.00   0.994
  s88                       33.40       0.00       0.00       0.93      17.56      14.83      32.39        0.01     0.00   0.970
  s89                       33.40       0.00       0.00       0.00      33.41       0.00      33.41        0.00     0.00   1.000
  s90                       33.40       0.00       0.00       0.38      26.89       6.11      33.00        0.00     0.00   0.988
  s91                       33.40       0.00       0.00       0.00      33.41       0.00      33.41        0.00     0.00   1.000
  s92                       33.40       0.00       0.00       1.04      15.74      16.52      32.26        0.01     0.01   0.966
  s93                       33.40       0.00       0.00       0.00      33.41       0.00      33.41        0.00     0.00   1.000
  s94                       33.40       0.00       0.00       0.00      33.42       0.00      33.42        0.00     0.00   1.000
  s95                       33.40       0.00       0.00       1.07      15.11      17.13      32.24        0.00     0.00   0.965
  s96                       33.40       0.00       0.00       1.95       0.00      31.30      31.30        0.00     0.00   0.937
  s97                       33.40       0.00       0.00       1.63       0.00      31.77      31.77        0.00     0.00   0.951
  s98                       33.40       0.00       0.00       1.48       8.15      23.64      31.79        0.00     0.00   0.952
  s99                       33.40       0.00       0.00       1.63       0.00      31.77      31.77        0.00     0.00   0.951
  s100                      33.40       0.00       0.00       0.00      33.41       0.00      33.41        0.00     0.00   1.000
  s101                      33.40       0.00       0.00       1.41       9.41      22.38      31.79        0.02     0.02   0.952
  s102                      33.40       0.00       0.00       0.00      33.41       0.00      33.41        0.00     0.00   1.000
  s103                      33.40       0.00       0.00       1.63       0.00      31.77      31.77        0.00     0.00   0.951
  s104                      33.40       0.00       0.00       1.84       2.05      29.24      31.29        0.01     0.01   0.937
  s105                      33.40       0.00       0.00       1.11      14.37      17.84      32.21        0.00     0.00   0.964
  s106                      33.40       0.00       0.00       0.00      33.41       0.00      33.41        0.00     0.00   1.000
  s107                      33.40       0.00       0.00       0.00      33.42       0.00      33.42        0.00     0.00   1.000
  s108                      33.40       0.00       0.00       1.29      11.37      20.57      31.94        0.02     0.01   0.956
  s109                      33.40       0.00       0.00       0.00      33.42       0.00      33.42        0.00     0.00   1.000
  s110                      33.40       0.00       0.00       0.00      33.41       0.00      33.41        0.00     0.00   1.000
  s111                      33.40       0.00       0.00       0.00      33.41       0.00      33.41        0.00     0.00   1.000
  s112                      33.40       0.00       0.00       0.00      33.42       0.00      33.42        0.00     0.00   1.000
  s113                      33.40       0.00       0.00       0.00      33.41       0.00      33.41        0.00     0.00   1.000
  s114                      33.40       0.00       0.00       0.06      32.47       0.88      33.34        0.00     0.00   0.998
  s115                      33.40       0.00       0.00       0.00      33.41       0.00      33.41        0.00     0.00   1.000
  s116                      33.40       0.00       0.00       0.00      33.41       0.00      33.41        0.00     0.00   1.000
  s117                      33.40       0.00       0.00       0.00      33.41       0.00      33.41        0.00     0.00   1.000
  s118                      33.40       0.00       0.00       1.63       0.00      31.77      31.77        0.00     0.00   0.951
  s119                      33.40       0.00       0.00       0.00      33.41       0.00      33.41        0.00     0.00   1.000
  s120                      33.40       0.00       0.00       0.81      19.48      13.06      32.53        0.00     0.00   0.974
  s121                      33.40       0.00       0.00       0.00      33.42       0.00      33.42        0.00     0.00   1.000
  s122                      33.40       0.00       0.00       0.00      33.41       0.00      33.41        0.00     0.00   1.000
  s123                      33.40       0.00       0.00       1.54       7.19      24.55      31.74        0.00     0.00   0.950
  s124                      33.40       0.00       0.00       1.89       1.24      30.05      31.29        0.00     0.00   0.937
  s125                      33.40       0.00       0.00       1.63       0.00      31.77      31.77        0.00     0.00   0.951
  s126                      33.40       0.00       0.00       0.90      17.97      14.46      32.44        0.00     0.00   0.971
  s127                      33.40       0.00       0.00       1.51       7.64      23.97      31.61        0.04     0.03   0.946
  s128                      33.40       0.00       0.00       0.38      26.83       6.17      33.00        0.00     0.00   0.988
  s129                      33.40       0.00       0.00       1.57       6.66      24.89      31.55        0.06     0.05   0.945
  s130                      33.40       0.00       0.00       0.00      33.41       0.00      33.41        0.00     0.00   1.000
  s131                      33.40       0.00       0.00       0.16      30.62       2.62      33.24        0.00     0.00   0.995
  s132                      33.40       0.00       0.00       0.00      33.41       0.00      33.41        0.00     0.00   1.000
  s133                      33.40       0.00       0.00       0.00      33.41       0.00      33.41        0.00     0.00   1.000
  s134                      33.40       0.00       0.00       0.24      29.27       3.88      33.15        0.00     0.00   0.993
  s135                      33.40       0.00       0.00       0.00      33.41       0.00      33.41        0.00     0.00   1.000
  s136                      33.40       0.00       0.00       0.00      33.41       0.00      33.41        0.00     0.00   1.000
  s137                      33.40       0.00       0.00       0.85      18.88      13.61      32.50        0.00     0.00   0.973
  s138                      33.40       0.00       0.00       0.00      33.42       0.00      33.42        0.00     0.00   1.000
  s139                      33.40       0.00       0.00       0.00      33.41       0.00      33.41        0.00     0.00   1.000
  s140                      33.40       0.00       0.00       1.63       0.00      31.77      31.77        0.00     0.00   0.951
  s141                      33.40       0.00       0.00       0.18      30.38       2.85      33.22        0.00     0.00   0.995
  s142                      33.40       0.00       0.00       1.28      11.63      20.38      32.01        0.00     0.00   0.958
  s143                      33.40       0.00       0.00       1.95       0.00      31.30      31.30        0.00     0.00   0.937
  s144                      33.40       0.00       0.00       0.00      33.41       0.00      33.41        0.00     0.00   1.000
  s145                      33.40       0.00       0.00       1.80       2.72      28.61      31.33        0.03     0.02   0.938
  s146                      33.40       0.00       0.00       0.09      31.86       1.45      33.31        0.00     0.00   0.997
  s147                      33.40       0.00       0.00       0.94      17.33      15.06      32.39        0.00     0.00   0.970
  s148                      33.40       0.00       0.00       1.42       9.07      22.80      31.87        0.00     0.00   0.954
  s149                      33.40       0.00       0.00       0.86      18.76      13.72      32.48        0.00     0.00   0.972
  s150                      33.40       0.00       0.00       1.63       0.00      31.77      31.77        0.00     0.00   0.951
  s151                      33.40       0.00       0.00       1.96       0.00      31.29      31.29        0.00     0.00   0.937
  s152                      33.40       0.00       0.00       0.04      32.68       0.66      33.34        0.00     0.00   0.998
  s153                      33.40       0.00       0.00       1.63       0.00      31.77      31.77        0.00     0.00   0.951
  s154                      33.40       0.00       0.00       1.63       0.00      31.77      31.77        0.00     0.00   0.951
  s155                      33.40       0.00       0.00       0.61      22.98       9.75      32.73        0.01     0.01   0.980
  s156                      33.40       0.00       0.00       1.17      13.44      18.66      32.09        0.02     0.01   0.961
  s157                      33.40       0.00       0.00       1.95       0.00      31.30      31.30        0.00     0.00   0.937
  s158                      33.40       0.00       0.00       1.25      12.02      20.04      32.06        0.00     0.00   0.960
  s159                      33.40       0.00       0.00       0.96      17.05      15.30      32.35        0.01     0.01   0.968
  s160                      33.40       0.00       0.00       0.00      33.41       0.00      33.41        0.00     0.00   1.000
  s161                      33.40       0.00       0.00       1.22      12.55      19.54      32.09        0.00     0.00   0.961
  s162                      33.40       0.00       0.00       0.16      30.57       2.66      33.24        0.00     0.00   0.995
  s163                      33.40       0.00       0.00       0.79      19.87      12.68      32.55        0.00     0.00   0.975
  s164                      33.40       0.00       0.00       1.94       0.00      31.30      31.30        0.00     0.00   0.937
  s165                      33.40       0.00       0.00       1.94       0.00      31.30      31.30        0.00     0.00   0.937
  s166                      33.40       0.00       0.00       1.34      10.61      21.33      31.94        0.00     0.00   0.956
  s167                      33.40       0.00       0.00       0.00      33.42       0.00      33.42        0.00     0.00   1.000
  s168                      33.40       0.00       0.00       1.79       2.88      28.47      31.35        0.02     0.02   0.939
  s169                      33.40       0.00       0.00       1.95       0.14      31.00      31.13        0.02     0.01   0.932
  s170                      33.40       0.00       0.00       1.34      10.58      21.29      31.87        0.03     0.02   0.954
  s171                      33.40       0.00       0.00       1.96       0.00      31.23      31.23        0.00     0.00   0.935
  s172                      33.40       0.00       0.00       1.63       0.00      31.77      31.77        0.00     0.00   0.951
  s173                      33.40       0.00       0.00       1.96       0.00      31.30      31.30        0.00     0.00   0.937
  s174                      33.40       0.00       0.00       1.77       3.16      28.32      31.47        0.00     0.00   0.942
  s175                      33.40       0.00       0.00       0.00      33.41       0.00      33.41        0.00     0.00   1.000
  s176                      33.40       0.00       0.00       0.13      31.09       2.17      33.26        0.01     0.00   0.996
  s177                      33.40       0.00       0.00       0.68      21.72      10.96      32.68        0.00     0.00   0.978
  s178                      33.40       0.00       0.00       0.00      33.41       0.00      33.41        0.00     0.00   1.000
  s179                      33.40       0.00       0.00       1.63       0.00      31.77      31.77        0.00     0.00   0.951
  s180                      33.40       0.00       0.00       1.63       0.00      31.77      31.77        0.00     0.00   0.951
  s181                      33.40       0.00       0.00       0.53      24.31       8.50      32.81        0.02     0.01   0.982
  s182                      33.40       0.00       0.00       0.23      29.49       3.68      33.17        0.00     0.00   0.993
  s183                      33.40       0.00       0.00       1.65       5.29      26.27      31.56        0.01     0.01   0.945
  s184                      33.40       0.00       0.00       1.76       3.41      28.08      31.49        0.00     0.00   0.943
  s185                      33.40       0.00       0.00       1.53       7.37      24.36      31.73        0.00     0.00   0.950
  s186                      33.40       0.00       0.00       1.54       7.15      24.52      31.67        0.01     0.01   0.948
  s187                      33.40       0.00       0.00       0.60      23.22       9.50      32.71        0.03     0.02   0.979
  s188                      33.40       0.00       0.00       0.00      33.41       0.00      33.41        0.00     0.00   1.000
  s189                      33.40       0.00       0.00       1.63       0.00      31.77      31.77        0.00     0.00   0.951
  s190                      33.40       0.00       0.00       1.60       6.13      25.43      31.56        0.04     0.03   0.945
  s191                      33.40       0.00       0.00       1.56       6.77      24.84      31.61        0.04     0.03   0.946
  s192                      33.40       0.00       0.00       1.88       1.36      29.90      31.25        0.02     0.02   0.936
  s193                      33.40       0.00       0.00       1.77       3.29      28.13      31.42        0.01     0.01   0.941
  s194                      33.40       0.00       0.00       0.00      33.41       0.00      33.41        0.00     0.00   1.000
  s195                      33.40       0.00       0.00       1.64       5.49      26.14      31.63        0.00     0.00   0.947
  s196                      33.40       0.00       0.00       0.73      20.89      11.71      32.59        0.02     0.01   0.976
  s197                      33.40       0.00       0.00       1.80       2.63      28.79      31.42        0.00     0.00   0.941
  s198                      33.40       0.00       0.00       0.00      33.41       0.00      33.41        0.00     0.00   1.000
  s199                      33.40       0.00       0.00       1.55       6.94      24.73      31.67        0.01     0.01   0.948
  s200                      33.40       0.00       0.00       0.63      22.58      10.14      32.72        0.01     0.00   0.980
  s201                      33.40       0.00       0.00       0.00      33.41       0.00      33.41        0.00     0.00   1.000
  s202                      33.40       0.00       0.00       0.00      33.41       0.00      33.41        0.00     0.00   1.000
  s203                      33.40       0.00       0.00       1.16      13.63      18.49      32.12        0.01     0.01   0.962
  s204                      33.40       0.00       0.00       1.88       1.25      29.70      30.96        0.01     0.01   0.927
  s205                      33.40       0.00       0.00       1.65       5.28      26.29      31.57        0.01     0.01   0.945
  s206                      33.40       0.00       0.00       1.19      13.03      19.08      32.11        0.00     0.00   0.961
  s207                      33.40       0.00       0.00       0.88      18.38      14.07      32.46        0.00     0.00   0.972
  s208                      33.40       0.00       0.00       0.95      17.24      15.12      32.36        0.01     0.01   0.969
  s209                      33.40       0.00       0.00       0.21      29.74       3.45      33.18        0.00     0.00   0.993
  s210                      33.40       0.00       0.00       0.00      33.41       0.00      33.41        0.00     0.00   1.000
  s211                      33.40       0.00       0.00       0.00      33.41       0.00      33.41        0.00     0.00   1.000
  s212                      33.40       0.00       0.00       0.92      17.67      14.73      32.41        0.00     0.00   0.970
  s213                      33.40       0.00       0.00       1.42       9.24      22.54      31.78        0.03     0.02   0.951
  s214                      33.40       0.00       0.00       0.61      22.90       9.85      32.75        0.00     0.00   0.981
  s215                      33.40       0.00       0.00       1.32      10.97      20.94      31.91        0.03     0.03   0.955
  s216                      33.40       0.00       0.00       1.37      10.03      21.82      31.85        0.02     0.02   0.954
  s217                      33.40       0.00       0.00       1.63       0.00      31.77      31.77        0.00     0.00   0.951
  s218                      33.40       0.00       0.00       1.90       1.02      30.11      31.14        0.11     0.09   0.932
  s219                      33.40       0.00       0.00       1.52       7.48      24.21      31.69        0.01     0.01   0.949
  s220                      33.40       0.00       0.00       0.00      33.41       0.00      33.41        0.00     0.00   1.000
  s221                      33.40       0.00       0.00       1.63       0.00      31.77      31.77        0.00     0.00   0.951
  s222                      33.40       0.00       0.00       1.81       2.59      28.81      31.40        0.00     0.00   0.940
  s223                      33.40       0.00       0.00       0.00      33.42       0.00      33.42        0.00     0.00   1.000
  s224                      33.40       0.00       0.00       0.00      33.41       0.00      33.41        0.00     0.00   1.000
  s225                      33.40       0.00       0.00       1.63       0.00      31.77      31.77        0.00     0.00   0.951
  s226                      33.40       0.00       0.00       0.00      33.41       0.00      33.41        0.00     0.00   1.000
  s227                      33.40       0.00       0.00       1.63       0.00      31.77      31.77        0.00     0.00   0.951
  s228                      33.40       0.00       0.00       1.63       0.00      31.77      31.77        0.00     0.00   0.951
  s229                      33.40       0.00       0.00       0.00      33.41       0.00      33.41        0.00     0.00   1.000
  s230                      33.40       0.00       0.00       0.00      33.41       0.00      33.41        0.00     0.00   1.000
  s231                      33.40       0.00       0.00       1.63       0.00      31.77      31.77        0.00     0.00   0.951
  s232                      33.40       0.00       0.00       1.63       0.00      31.77      31.77        0.00     0.00   0.951
  s233                      33.40       0.00       0.00       0.00      33.41       0.00      33.41        0.00     0.00   1.000
  s234                      33.40       0.00       0.00       0.00      33.41       0.00      33.41        0.00     0.00   1.000
  s235                      33.40       0.00       0.00       0.00      33.41       0.00      33.41        0.00     0.00   1.000
  s236                      33.40       0.00       0.00       0.00      33.41       0.00      33.41        0.00     0.00   1.000
  s237                      33.40       0.00       0.00       0.00      33.41       0.00      33.41        0.00     0.00   1.000
  s238                      33.40       0.00       0.00       1.63       0.00      31.77      31.77        0.00     0.00   0.951
  s239                      33.40       0.00       0.00       0.00      33.41       0.00      33.41        0.00     0.00   1.000
  s240                      33.40       0.00       0.00       1.63       0.00      31.77      31.77        0.00     0.00   0.951
  s241                      33.40       0.00       0.00       1.63       0.00      31.77      31.77        0.00     0.00   0.951
  s242                      33.40       0.00       0.00       1.63       0.00      31.77      31.77        0.00     0.00   0.951
  s243                      33.40       0.00       0.00       1.94       0.00      31.30      31.30        0.00     0.00   0.937
  s244                      33.40       0.00       0.00       1.61       5.88      25.76      31.63        0.00     0.00   0.947
  s245                      33.40       0.00       0.00       0.00      33.41       0.00      33.41        0.00     0.00   1.000
  s246                      33.40       0.00       0.00       1.94       0.00      31.30      31.30        0.00     0.00   0.937
  s247                      33.40       0.00       0.00       1.09      14.88      17.30      32.18        0.02     0.01   0.963
  s248                      33.40       0.00       0.00       0.72      20.98      11.65      32.63        0.00     0.00   0.977
  s249                      33.40       0.00       0.00       1.95       0.00      31.30      31.30        0.00     0.00   0.937
  s250                      33.40       0.00       0.00       1.96       0.00      31.28      31.28        0.00     0.00   0.936
  s251                      33.40       0.00       0.00       1.96       0.00      31.20      31.20        0.00     0.00   0.934
  s252                      33.40       0.00       0.00       0.00      33.41       0.00      33.41        0.00     0.00   1.000
  s253                      33.40       0.00       0.00       0.36      27.30       5.71      33.01        0.01     0.01   0.988
  s254                      33.40       0.00       0.00       1.94       0.00      31.30      31.30        0.00     0.00   0.937
  s255                      33.40       0.00       0.00       0.79      19.98      12.59      32.56        0.00     0.00   0.975
  s256                      33.40       0.00       0.00       1.11      14.55      17.66      32.21        0.00     0.00   0.964
  s257                      33.40       0.00       0.00       0.66      22.13      10.57      32.70        0.00     0.00   0.979
  s258                      33.40       0.00       0.00       1.95       0.00      31.30      31.30        0.00     0.00   0.937
  s259                      33.40       0.00       0.00       0.00      33.41       0.00      33.41        0.00     0.00   1.000
  s260                      33.40       0.00       0.00       1.63       0.00      31.77      31.77        0.00     0.00   0.951
  s261                      33.40       0.00       0.00       1.86       1.71      29.45      31.15        0.03     0.03   0.933
  s262                      33.40       0.00       0.00       1.63       0.00      31.77      31.77        0.00     0.00   0.951
  s263                      33.40       0.00       0.00       1.63       0.00      31.77      31.77        0.00     0.00   0.951
  s264                      33.40       0.00       0.00       1.33      10.67      21.27      31.95        0.00     0.00   0.956
  s265                      33.40       0.00       0.00       1.95       0.00      31.30      31.30        0.00     0.00   0.937
  s266                      33.40       0.00       0.00       1.63       0.00      31.77      31.77        0.00     0.00   0.951
  s267                      33.40       0.00       0.00       1.63       0.00      31.77      31.77        0.00     0.00   0.951
  s268                      33.40       0.00       0.00       0.00      33.41       0.00      33.41        0.00     0.00   1.000
  s269                      33.40       0.00       0.00       1.96       0.00      31.28      31.28        0.00     0.00   0.937
  s270                      33.40       0.00       0.00       0.61      22.97       9.78      32.75        0.00     0.00   0.981
  s271                      33.40       0.00       0.00       1.63       0.00      31.77      31.77        0.00     0.00   0.951
  s272                      33.40       0.00       0.00       1.63       0.00      31.77      31.77        0.00     0.00   0.951
  s273                      33.40       0.00       0.00       1.94       0.00      31.30      31.30        0.00     0.00   0.937
  s274                      33.40       0.00       0.00       1.63       0.00      31.77      31.77        0.00     0.00   0.951
  s275                      33.40       0.00       0.00       1.50       7.82      23.86      31.68        0.04     0.03   0.948
  s276                      33.40       0.00       0.00       1.42       9.11      22.72      31.84        0.00     0.00   0.953
  s277                      33.40       0.00       0.00       0.05      32.52       0.83      33.35        0.01     0.00   0.998
  s278                      33.40       0.00       0.00       0.93      17.53      14.86      32.39        0.00     0.00   0.970
  s279                      33.40       0.00       0.00       1.63       5.52      26.06      31.58        0.00     0.00   0.946
  s280                      33.40       0.00       0.00       0.00      33.41       0.00      33.41        0.00     0.00   1.000
  s281                      33.40       0.00       0.00       1.73       3.85      27.64      31.49        0.00     0.00   0.943
  s282                      33.40       0.00       0.00       1.27      11.73      20.26      32.00        0.01     0.01   0.958
  s283                      33.40       0.00       0.00       0.59      23.25       9.52      32.77        0.00     0.00   0.981
  s284                      33.40       0.00       0.00       1.23      12.49      19.57      32.06        0.00     0.00   0.960
  s285                      33.40       0.00       0.00       1.63       0.00      31.77      31.77        0.00     0.00   0.951
  s286                      33.40       0.00       0.00       0.24      29.23       3.91      33.14        0.00     0.00   0.992
  
  
  ******************
  Node Depth Summary
  ******************
  
  ---------------------------------------------------------------------------------
                                 Average  Maximum  Maximum  Time of Max    Reported
                                   Depth    Depth      HGL   Occurrence   Max Depth
  Node                 Type       Meters   Meters   Meters  days hr:min      Meters
  ---------------------------------------------------------------------------------
  {90E90159-D9FD-4FDB-8A20-BEDD0C54D4FF} JUNCTION     0.14     2.21   558.84     0  00:11        1.68
  {BD46444C-B91C-4EDE-A2A7-8989E3D7FA1C} JUNCTION     0.23     2.45   558.37     0  00:11        2.36
  {2F67F1A4-6223-4674-BD20-C336241F9FEF} JUNCTION     0.26     2.54   558.41     0  00:11        2.54
  {495632DE-A07D-4353-A2CB-375742D7D66E} JUNCTION     0.00     0.02   556.60     0  00:20        0.02
  {BFFD5BDB-869D-4EE2-A1BD-DE3661C59EC1} JUNCTION     0.01     0.05   589.07     0  00:20        0.05
  {B9FC12D7-D1D4-4580-B05B-9A0B3B79FCA4} JUNCTION     0.15     1.71   587.55     0  00:13        1.71
  {4BA9CACA-67B0-4ADB-804E-C6D1996967FB} JUNCTION     0.01     0.03   583.27     0  00:20        0.03
  {43E93F5B-2799-4B06-A5D4-5A298C75977B} JUNCTION     0.14     2.51   582.28     0  00:12        2.51
  {AF0BCDD2-9CCC-4826-BDB2-784CCB66B4F2} JUNCTION     0.01     0.05   591.67     0  00:20        0.05
  {BEB8F4C7-F8A6-4378-B394-2BFC41D75CEE} JUNCTION     0.01     0.02   591.71     0  00:13        0.02
  {430F4BFD-B5B8-410C-BD2F-552A0442C584} JUNCTION     0.01     0.03   589.27     0  00:20        0.03
  {06BE35D3-ACF9-4BBD-9DD4-006EC6349B88} JUNCTION     0.01     0.03   581.00     0  00:20        0.03
  {BE0A883E-6137-4F45-BE01-FB8A3E179A2E} JUNCTION     0.01     0.02   580.34     0  00:20        0.02
  {9D5F8D81-0BB8-47B8-AE36-3D6984931B6A} JUNCTION     0.01     0.02   580.62     0  00:20        0.02
  {D0945EAE-084C-4E03-A959-B1F0D7F108F5} JUNCTION     0.03     0.22   581.73     0  00:19        0.21
  {6ACD5222-A344-4E43-90F1-DCCE9D4EBDC4} JUNCTION     0.01     0.04   579.39     0  00:20        0.04
  {F743005D-5D03-4D84-86B4-C4ACE8057D38} JUNCTION     0.01     0.06   577.37     0  00:20        0.06
  {6BA272C1-5CE8-45A5-88FF-1684B3AC3660} JUNCTION     0.01     0.03   577.36     0  00:20        0.03
  {470C212E-8902-48AE-B472-EC5003FF908D} JUNCTION     0.01     0.03   575.06     0  00:20        0.03
  {FA8C8319-EC3D-4FE9-B647-F24E294B6B56} JUNCTION     0.01     0.03   572.28     0  00:20        0.03
  {0F8C892C-8D2B-45DF-B402-702FE182E0CF} JUNCTION     0.04     1.22   571.03     0  00:13        1.03
  {834DF493-04E0-46A9-A4C3-4E9836FC0FCB} JUNCTION     0.03     0.10   571.38     0  00:16        0.10
  {D385B3B8-5D53-4472-BA8C-00D8A1AF80BB} JUNCTION     0.19     1.16   595.39     0  00:12        1.16
  {6CD0E440-D681-424E-8B41-10BF6016AD38} JUNCTION     0.01     0.05   593.93     0  00:20        0.05
  {FD799397-2EAC-4260-81A8-AA47FE52FCA1} JUNCTION     0.01     0.03   590.77     0  00:20        0.03
  {1880D3CA-15F6-4BAF-B867-16D42615E50D} JUNCTION     0.04     0.31   563.52     0  00:12        0.29
  {BB9FDD9F-B910-439B-BD34-296ED308E027} JUNCTION     0.00     0.02   563.19     0  00:19        0.02
  {C78D70B9-2602-4391-9B47-F4501880FF98} JUNCTION     0.01     0.02   561.39     0  00:20        0.02
  {B9FF30AF-F2D9-4759-BB7B-461218B9E345} JUNCTION     0.21     1.73   554.74     0  00:11        1.57
  {20BDD543-741A-4317-AA95-01F9E69CDC73} JUNCTION     0.21     1.80   554.81     0  00:11        1.56
  {B9BAA0AB-A68C-4168-ADFA-24144CA144DB} JUNCTION     0.18     1.79   554.20     0  00:11        1.35
  {19349919-933A-4E53-8BAD-262D0EB10F40} JUNCTION     0.12     2.04   555.78     0  00:11        0.99
  {0C9DF317-4090-436D-B0EA-397495B19953} JUNCTION     0.14     1.47   570.95     0  00:11        1.13
  {4A5B2EC4-6184-4B00-91BB-B76F7429C1FB} JUNCTION     0.06     1.15   570.89     0  00:19        1.15
  {E88422C4-BA00-40DB-A04F-D6F8346EAF54} JUNCTION     0.23     3.35   581.74     0  00:12        3.19
  {F45BDDFF-1FAC-471E-B339-5A2023CC592C} JUNCTION     0.16     1.34   577.33     0  00:11        1.34
  {7037BE5B-B536-4066-AE31-9239FEA31041} JUNCTION     0.02     0.07   573.94     0  00:20        0.07
  {7186DD2A-71A7-4349-993B-743ADEDC1FFA} JUNCTION     0.01     0.06   576.36     0  00:20        0.06
  {D3A10EB7-59F9-4977-96F8-14107B82483E} JUNCTION     0.02     0.07   574.60     0  00:20        0.07
  {5A3D0701-4EAF-4AE0-BC4D-D4B097DAA9BB} JUNCTION     0.02     0.43   572.04     0  00:19        0.43
  {6CAE8A38-A1B0-45FC-A5A5-3FEBB7F8909D} JUNCTION     0.19     2.29   579.91     0  00:12        2.10
  {5E32E9DC-F846-47BC-8334-508314181EAB} JUNCTION     0.14     1.35   578.36     0  00:11        1.12
  {796418F5-AA86-4907-917D-1377D0D514EC} JUNCTION     0.13     1.70   579.68     0  00:12        1.70
  {8F1D6421-F063-4B91-A3BA-8C0420FB374A} JUNCTION     0.07     1.95   579.40     0  00:11        0.68
  {0F922503-B55E-43F3-B6B0-E030E4297FBE} JUNCTION     0.08     0.62   577.96     0  00:11        0.62
  {68C878AE-0856-4DD1-9AF4-A01BD5C59D83} JUNCTION     0.11     0.96   578.15     0  00:11        0.84
  {952CD531-5DAA-4D74-B7D5-8E8CFFD209D2} JUNCTION     0.18     2.08   575.87     0  00:11        1.79
  {6C3761C6-5D9F-46E1-9D15-B622E99D2A34} JUNCTION     0.03     0.32   566.18     0  00:19        0.31
  {B851080A-DCFB-48D1-BB8E-E6283E618D2E} JUNCTION     0.11     1.88   569.19     0  00:12        1.77
  {D757EBA6-EFB7-49C3-ABC7-2E22C275B2B1} JUNCTION     0.12     1.66   564.51     0  00:11        1.65
  {5790FD5C-A7E3-4F9D-9AEF-4A4617C8BFB1} JUNCTION     0.11     1.73   566.03     0  00:11        1.71
  {A05B6985-ACCB-446C-8336-D442218398AA} JUNCTION     0.11     1.74   567.39     0  00:12        1.73
  {F15214DD-FEEE-48E3-9B15-2A91FE006E66} JUNCTION     0.08     1.67   564.27     0  00:11        1.20
  {85D8B240-FF9B-485A-879B-4E18632AA72D} JUNCTION     0.13     1.63   563.24     0  00:11        1.63
  {D4A525D1-4C10-4B7C-90D4-03DCADE0EC74} JUNCTION     0.09     1.95   559.62     0  00:12        1.19
  {406E4E90-C3B1-4D14-B95B-4AC36078B1E0} JUNCTION     0.07     2.01   559.78     0  00:12        1.33
  {EAE5168C-3970-40DB-AC6B-3AF95FC98F6B} JUNCTION     0.10     2.02   559.59     0  00:11        1.14
  {2603A47B-5996-468F-984E-ECBB27326D45} JUNCTION     0.11     1.74   559.34     0  00:11        1.22
  {DD479643-3C57-4022-A14F-F151D5FE7F6E} JUNCTION     0.04     1.40   559.17     0  00:12        0.64
  {24D6AB4B-D0FD-4F33-95F9-A6D2598B58D5} JUNCTION     0.00     0.01   556.99     0  00:18        0.01
  {E4240678-7945-49C8-8726-231A4A92C951} JUNCTION     0.01     0.05   556.01     0  00:19        0.05
  {6FA8517F-CBE0-4241-8735-3C259DBFE144} JUNCTION     0.02     0.96   555.27     0  00:12        0.35
  {50FC0FB2-18C0-4C99-A198-762C1506189F} JUNCTION     0.07     1.06   555.67     0  00:19        1.05
  {31DEA68C-78C7-4CD1-B9D5-72C09A3B3DE0} JUNCTION     0.03     0.62   555.07     0  00:19        0.61
  {2FA92753-6E77-430D-B685-DB6B2604B262} JUNCTION     0.07     1.11   555.92     0  00:19        1.09
  {244ABA1B-8FBA-4B08-9783-8F923BBC3200} JUNCTION     0.01     0.43   555.19     0  00:13        0.30
  {3A1CFFC7-D562-4F8D-947F-FB28940F343E} JUNCTION     0.01     0.06   572.71     0  00:20        0.06
  {1FFE1C34-2C96-46CE-8C39-252A838B016F} JUNCTION     0.20     1.99   574.39     0  00:19        1.97
  {8574D468-0F79-49D5-8D8E-1A26AFF86908} JUNCTION     0.15     1.75   574.44     0  00:19        1.75
  {03B23DC4-726A-4173-B9DB-EAE9DEE6E93B} JUNCTION     0.01     0.34   572.05     0  00:19        0.34
  {E8F33A80-5690-4C03-9362-D0C9651260FD} JUNCTION     0.01     0.05   573.72     0  00:20        0.05
  {C769A1F3-9D18-4539-803A-90C90253A8A3} JUNCTION     0.00     0.01   565.82     0  00:18        0.01
  {A3ED4BF3-1B8B-45B4-A171-C42E48945A0F} JUNCTION     0.05     1.61   566.64     0  00:12        0.79
  {11A64DDE-1D7A-4438-8497-C53403C215FA} JUNCTION     0.01     0.08   565.82     0  00:19        0.08
  {3988652D-73E1-4F38-A004-5634BF0BE414} JUNCTION     0.07     0.93   555.06     0  00:18        0.92
  {95339666-3265-43A6-A0EF-23ACB28E7695} JUNCTION     0.04     0.55   554.20     0  00:11        0.52
  {D992BC10-1D4D-42D3-B579-7231B69199ED} JUNCTION     0.18     1.96   553.67     0  00:11        1.36
  {253D083D-BF49-47AB-B75B-D9B0B6BBA7BA} JUNCTION     0.16     1.87   554.07     0  00:11        1.27
  {41CAB327-AB45-413F-AD00-43103BC96FF8} JUNCTION     0.17     1.82   552.33     0  00:10        1.18
  {A9D13A4F-A579-4C96-BC68-682E062DF33A} JUNCTION     0.00     0.01   574.17     0  00:14        0.01
  {6A52AA62-74CB-403E-B999-06FE981C8D35} JUNCTION     0.05     0.93   579.83     0  00:19        0.92
  {E0957521-43A5-4F26-A665-67C003D86484} JUNCTION     0.01     0.05   561.30     0  00:20        0.05
  {01FB85E4-4D7E-4213-9995-E03F1026C4DC} JUNCTION     0.09     1.12   558.86     0  00:18        1.11
  {11559E03-21A5-4188-8C0C-D5A613A1F379} JUNCTION     0.02     0.94   566.46     0  00:13        0.87
  {6642445E-834F-4296-8E66-2DC26604CF6A} JUNCTION     0.01     0.04   578.98     0  00:20        0.04
  {2B33F07A-6201-4A5B-A92B-E9FFED071746} JUNCTION     0.01     0.04   579.79     0  00:20        0.04
  {8E7EBE63-D042-40E5-A637-1991E2D335E6} JUNCTION     0.02     0.12   577.78     0  00:11        0.13
  {D9313FA0-B671-4EB9-9671-03705E1EEDED} JUNCTION     0.01     0.03   578.72     0  00:20        0.03
  {FF4EE062-7C38-43BF-9839-EE3178E0BAB5} JUNCTION     0.01     0.39   572.06     0  00:20        0.39
  {B9458D0A-B233-4A5D-A87D-09DBF8123170} JUNCTION     0.06     1.22   566.05     0  00:13        1.14
  {092C0C4E-DC72-4C29-8AB5-E707647B71A9} JUNCTION     0.03     0.12   579.71     0  00:20        0.12
  {899AF69B-0A40-4B3B-8CFE-3A253573CA72} JUNCTION     0.01     0.05   572.22     0  00:20        0.05
  {12841AF4-C57D-4092-84C7-7B72E2B6896A} JUNCTION     0.00     0.01   574.81     0  00:18        0.01
  {D04EB3DC-50DF-42F7-A96A-DDE91717BAE7} JUNCTION     0.00     0.01   579.41     0  00:16        0.01
  {A32F74F8-CDFD-411B-B2F2-10D2064E02C5} JUNCTION     0.24     1.30   551.62     0  00:11        1.25
  {C3364F98-B325-4FE6-85DE-D57AA75343AC} JUNCTION     0.06     0.21   585.62     0  00:20        0.21
  {34413F41-A7EC-4C20-B5D3-FF63463DA36E} JUNCTION     0.22     2.01   553.99     0  00:11        1.43
  {C4D3A39B-59B2-4C6E-8CFB-65BD10E651A5} JUNCTION     0.09     0.61   554.03     0  00:12        0.59
  {3C4704DA-EBE1-42CA-A6CA-58B1B4927460} JUNCTION     0.09     0.62   555.59     0  00:17        0.61
  {D997A891-5F42-415A-8CDB-5398BF7A63E7} JUNCTION     0.19     1.58   558.42     0  00:18        1.57
  {29133728-3864-47C5-A889-643BA2901A47} JUNCTION     0.20     1.66   558.72     0  00:19        1.65
  {94EAE0E3-9681-4609-A923-D13686E7CC16} JUNCTION     0.17     1.78   563.24     0  00:12        1.77
  {025F5E86-D375-4BDA-A97D-500A564E36E6} JUNCTION     0.16     1.79   564.43     0  00:12        1.79
  {0B317328-9A39-4544-89EF-F19BCED785B4} JUNCTION     0.16     1.86   566.00     0  00:13        1.86
  {31A3601E-CFF2-4510-88E7-781C40D3E550} JUNCTION     0.16     1.91   567.32     0  00:14        1.91
  {5C250655-C9FB-4DAB-A712-1D0D9C4D11F3} JUNCTION     0.15     2.00   568.82     0  00:19        1.99
  {7F786E94-2A2D-4183-92F2-4D695465988B} JUNCTION     0.10     1.38   570.83     0  00:20        1.38
  {62344DB2-9C2F-42A3-BFD1-584164085E3E} JUNCTION     0.04     0.22   572.08     0  00:20        0.22
  {0D95D86E-8517-4121-B775-DD9F5D27B0D6} JUNCTION     0.04     0.14   574.47     0  00:20        0.14
  {30D0274B-FC7C-45D4-B8EA-9B0DA2878CF4} JUNCTION     0.04     0.14   574.65     0  00:20        0.14
  {EF7E7D74-3DF6-4B72-9F15-6C8A2AE856C3} JUNCTION     0.04     0.14   577.06     0  00:20        0.14
  {00B07B23-5066-4840-846A-AF0E47C4DB19} JUNCTION     0.03     0.14   577.11     0  00:20        0.14
  {AB41FDFF-4AC1-45F5-919D-59D3AF8F5D6F} JUNCTION     0.03     0.12   579.21     0  00:20        0.12
  {F419D1A3-2D63-4E80-82E3-FE5907C88646} JUNCTION     0.03     0.12   579.17     0  00:20        0.12
  {742243ED-4117-488A-98B3-DD804E6D0749} JUNCTION     0.21     1.74   554.01     0  00:11        1.58
  {F0773422-946D-459A-BC35-F3F4E94D8976} JUNCTION     0.06     1.60   554.57     0  00:11        0.56
  {D8464A9E-BE38-4356-A298-B6475DE3E2E3} JUNCTION     0.06     1.71   554.71     0  00:11        0.54
  {CD8892D0-7FFA-4928-895A-9C41EAD375C5} JUNCTION     0.06     0.20   589.12     0  00:20        0.20
  {C38AD4C8-5D21-4764-AF99-5C9691F7BA81} JUNCTION     0.02     0.09   573.84     0  00:20        0.09
  {52CCE5C0-5FA4-4C81-A999-EE43103489F2} JUNCTION     0.20     3.27   581.79     0  00:12        3.07
  {62BEE652-51F7-485A-8B5C-163A5BFD0333} JUNCTION     0.03     0.97   555.46     0  00:12        0.57
  {BBC00235-87E5-4740-8B12-74991D531482} JUNCTION     0.05     0.80   556.80     0  00:11        0.68
  {85A8D30F-2439-4342-B269-59DAC1983C2E} JUNCTION     0.02     0.10   557.17     0  00:19        0.10
  {55DC4F20-663D-4C99-AB30-A0AE8D39BD29} JUNCTION     0.00     0.01   556.75     0  00:16        0.01
  {5CBA250E-FF29-47DE-9E18-4C143963E5FC} JUNCTION     0.00     0.00   589.34     0  00:20        0.00
  {BE6D071A-0B1F-4C27-A22F-45E9B747CD64} JUNCTION     0.02     0.07   586.92     0  00:20        0.07
  {77AFAF00-D8DD-4644-ABEF-42188CA1A211} JUNCTION     0.02     0.07   584.92     0  00:20        0.07
  {88FD7AAB-E1D9-49EB-BCC3-698A78C0D1F4} JUNCTION     0.02     0.09   582.73     0  00:20        0.09
  {1062A9DF-4C0D-4E55-9D5C-6371FCABC5BA} JUNCTION     0.03     0.11   581.28     0  00:20        0.11
  {855C3C67-5962-4552-8DA9-AF64B863B8DA} JUNCTION     0.18     2.16   554.49     0  00:11        1.21
  {82BEFB4B-B64D-4899-AAAC-0E719D7187AB} JUNCTION     0.09     0.56   553.87     0  00:12        0.54
  {B3ED597C-7003-465D-B178-DD7645740BD1} JUNCTION     0.24     1.87   561.28     0  00:11        1.87
  {C5C093EE-D6DE-4040-866C-BEDE32704BFF} JUNCTION     0.08     0.59   555.77     0  00:17        0.59
  {4160A5A4-263A-4BC0-A943-D6EB1FAA2B09} JUNCTION     0.18     1.76   562.95     0  00:12        1.75
  {9CFD38AC-5629-4F87-B9FC-E52CC16203D5} JUNCTION     0.16     1.80   564.75     0  00:20        1.79
  {531BFEC1-40CC-45BE-8937-5E009BF4DD15} JUNCTION     0.16     1.91   566.55     0  00:17        1.91
  {F13DBECE-5B0D-4F65-B633-980599661E7A} JUNCTION     0.16     2.06   568.47     0  00:19        2.04
  {C837CE28-E520-4ED2-946F-F19688EE5B00} JUNCTION     0.08     1.01   571.78     0  00:19        1.00
  {C92F60A1-1ACB-49A2-8F31-AFE409ECC772} JUNCTION     0.03     0.14   577.40     0  00:20        0.14
  {3C1A5AC2-E4B6-49ED-BEAC-C1A1C7616CD4} JUNCTION     0.02     0.09   573.03     0  00:20        0.09
  {6641E1AB-521B-4AA3-9B0C-34F369083F1E} JUNCTION     0.05     0.72   571.85     0  00:19        0.71
  {BFB180F3-D779-4765-ACAE-7EBD58B572F4} JUNCTION     0.03     0.10   569.37     0  00:20        0.10
  {B057ABB2-6C12-4D85-89B2-DCE9855C2FF8} JUNCTION     0.30     2.60   558.28     0  00:19        2.59
  {4ABC84FA-2B93-4233-8536-0F3780DFAEF4} JUNCTION     0.04     0.15   560.99     0  00:20        0.15
  {0C084A1E-5FDB-4A05-B9CB-FCB0F07DE093} JUNCTION     0.03     0.10   565.15     0  00:20        0.10
  {54FCA80C-E381-4063-BE5F-691E7CF2D58D} JUNCTION     0.02     0.07   580.77     0  00:20        0.07
  {66BD37BF-83E8-4293-8F79-E76925A7D15B} JUNCTION     0.52     3.95   577.67     0  00:11        3.95
  {71569252-7E4D-4BA7-9005-24C60F6E8B11} JUNCTION     0.10     1.17   579.45     0  00:12        1.15
  {47B10340-11FA-4854-8C4C-4E2ABA2D23E7} JUNCTION     0.06     0.16   593.57     0  00:20        0.16
  {B29D8B70-EEB0-4E4C-9F6B-870C2600A743} JUNCTION     0.06     0.17   590.68     0  00:20        0.17
  {052F44D0-E314-4419-AF41-773A3FD560A9} JUNCTION     0.06     0.21   584.14     0  00:20        0.21
  {3DC248DE-11C6-493D-862A-02A6EF6781A4} JUNCTION     0.06     0.18   588.80     0  00:20        0.18
  {8D0F34FF-5970-490D-B55C-BC97525F0FEC} JUNCTION     0.35     1.99   553.06     0  00:11        1.99
  {E7E5C224-AC48-45F0-9673-EE99237F25EB} JUNCTION     0.30     1.94   554.54     0  00:11        1.94
  {04357F2B-46C4-4886-91EF-591F896BA0CE} JUNCTION     0.25     1.82   573.24     0  00:11        1.80
  {EC04F4F2-4DB0-4923-A668-9B7A059783CE} JUNCTION     0.23     1.46   561.03     0  00:11        1.46
  {11F545CC-60A8-4C5F-BB82-59B90340B86E} JUNCTION     0.21     1.71   558.86     0  00:11        1.71
  {56064FF9-0D31-4A1C-9A00-3F5A67EDE930} JUNCTION     0.01     0.03   589.54     0  00:20        0.03
  {BEF7B478-37C6-45DC-9742-7F9E147B7AEB} JUNCTION     0.01     0.04   580.28     0  00:20        0.04
  {A26412EA-59C9-46BE-AA71-687BB3C452F3} JUNCTION     0.03     0.46   566.11     0  00:19        0.45
  {38747A5E-C413-498A-9D02-D75FA55C90CE} JUNCTION     0.04     0.48   572.05     0  00:19        0.48
  {1B1D24C7-AF6C-4195-8DF5-78D18647230F} JUNCTION     0.10     1.47   565.85     0  00:13        1.44
  {FB97C775-A941-4439-9CB8-DB2978BD8B8C} JUNCTION     0.05     0.70   566.04     0  00:19        0.69
  {F275CBD5-4BC1-4D86-95B0-90E76E47422A} JUNCTION     0.01     0.04   584.58     0  00:20        0.04
  {FB09AF15-45B6-4F8D-A65B-BF3B809260AE} JUNCTION     0.02     0.10   578.10     0  00:19        0.10
  {AC3D02BC-1136-456A-B6E3-C2F64BB0B1DE} JUNCTION     0.02     0.10   559.46     0  00:19        0.10
  {86F6B7CC-AD19-4D77-B304-B97694FA1B44} JUNCTION     0.01     0.05   556.33     0  00:20        0.05
  {ACAD5060-E5E4-4C2D-ACE4-217073544135} JUNCTION     0.00     0.02   592.05     0  00:20        0.02
  {C95C422F-9D81-46AF-8302-CE027D338BD4} JUNCTION     0.02     0.07   565.84     0  00:19        0.07
  {56377131-A249-41FA-B82A-DFF566DAD05A} JUNCTION     0.01     0.06   561.98     0  00:20        0.06
  {D8E9E68D-8F38-4EEC-AB27-D9050FD801EC} JUNCTION     0.00     0.01   557.54     0  00:20        0.01
  {A075B6B4-7DB1-4A4B-97A8-B01FADEB45E3} JUNCTION     0.00     0.01   557.31     0  00:20        0.01
  {DC513466-E868-44E8-9B61-048381B336ED} JUNCTION     0.01     0.06   583.51     0  00:20        0.06
  {13773E43-06C3-420A-808B-AF360260489C} JUNCTION     0.01     0.03   581.73     0  00:13        0.03
  {5A66C422-1D05-4500-B10B-7CD78F02596A} JUNCTION     0.01     0.03   579.26     0  00:19        0.03
  {4C4CC7C1-286B-4CFA-91DE-A6BF9524CB60} JUNCTION     0.01     0.04   580.12     0  00:20        0.04
  {32B34C72-BD10-4360-AC89-2F52AAA06B00} JUNCTION     0.17     1.67   561.69     0  00:11        1.66
  {156C2CEA-CBA0-4CB0-ACAA-6D25B1F98607} JUNCTION     0.15     1.51   561.87     0  00:11        1.51
  {51634C29-1C2C-49A0-ACBA-12B974166785} JUNCTION     0.01     0.04   574.91     0  00:20        0.04
  {3F3EB667-5967-4BB0-AFE5-5932BE26A2F7} JUNCTION     0.00     0.01   575.21     0  00:20        0.01
  {250AC303-8147-4F3D-94B5-1096A300BC00} JUNCTION     0.06     0.97   570.02     0  00:14        0.97
  {D15710AC-67A9-43B9-B69B-F0696E698E10} JUNCTION     0.03     1.13   570.47     0  00:14        0.67
  {314CC3E6-5F9D-4D0D-B9AA-B07915AD2EF3} JUNCTION     0.05     1.22   570.27     0  00:14        0.97
  {FCC64B2E-04C3-4F47-8497-6548D497924F} JUNCTION     0.03     1.43   570.78     0  00:14        1.43
  {7391ACD0-F776-49D7-BD19-0D6E5390C80B} JUNCTION     0.00     0.07   570.02     0  00:18        0.07
  {387CEB80-7799-4306-A915-1C7A2D6C9094} JUNCTION     0.05     0.68   578.05     0  00:11        0.39
  {AE532177-CCAD-4F0F-A5AE-1804A30CBE5F} JUNCTION     0.03     0.74   578.24     0  00:11        0.31
  {F998ED81-B438-4C64-B00B-170185EA8D1B} JUNCTION     0.01     0.05   578.91     0  00:20        0.05
  {AD1A98CD-D333-4EDA-B028-6A07F527172B} JUNCTION     0.01     0.06   578.56     0  00:20        0.06
  {D00FD9E7-4C5F-47F1-B4DA-3575B481B183} JUNCTION     0.08     1.35   566.03     0  00:13        1.24
  {62EB9C08-F37C-4091-8203-B1C4685F2F62} JUNCTION     0.03     0.78   559.41     0  00:12        0.44
  {E155B8C6-50E0-44E6-898E-EB3BB2E1DE2A} JUNCTION     0.01     0.05   589.98     0  00:20        0.05
  {8017AA70-DDB5-446E-B6BB-758D8038EC01} JUNCTION     0.02     0.08   560.97     0  00:20        0.08
  {F4015CA0-5A0B-4BC3-8B16-C94800C848A3} JUNCTION     0.02     0.09   560.23     0  00:20        0.09
  {C4570FAA-77DD-42DB-A954-CCA141FCAD31} JUNCTION     0.02     0.09   556.85     0  00:20        0.09
  {685F85DC-08A4-42EC-9684-9F0D13613136} JUNCTION     0.13     1.02   554.73     0  00:11        0.99
  {B613A200-54BB-4ECB-BAD8-B727A66428B1} JUNCTION     0.00     0.01   570.83     0  00:20        0.01
  {8EE14D18-F62C-4E3C-AFFA-D88F0BDC4FBF} JUNCTION     0.02     0.12   559.94     0  00:19        0.12
  {95459DD8-4605-4733-97CC-14148F906845} JUNCTION     0.04     0.34   559.93     0  00:19        0.33
  {5E8849D5-6E2B-48ED-B1DB-7C7EDECC81A7} JUNCTION     0.02     0.10   570.16     0  00:20        0.10
  {885160B0-8606-41FB-8F82-E4B79BFFDEC3} JUNCTION     0.06     0.41   569.94     0  00:11        0.38
  {BA54F3A6-C441-490E-AFE3-A9ED7E82D4EB} JUNCTION     0.00     0.00   556.97     0  00:20        0.00
  {02116C3D-83D4-4863-8C3E-33CA34162C2F} JUNCTION     0.02     0.07   555.70     0  00:20        0.07
  {D2A5C3E3-979B-43E7-B315-A46199F5AB46} JUNCTION     0.01     0.04   557.24     0  00:20        0.04
  {13B20480-6E9A-43B9-9C51-9107F5028589} JUNCTION     0.01     0.04   558.50     0  00:20        0.04
  {BC3961A4-81A5-45E2-B856-75CF40FF2C0B} JUNCTION     0.00     0.00   556.65     0  00:20        0.00
  {1A6C6FC1-2E57-4D0A-95E1-B57EB2ABB0F5} JUNCTION     0.01     0.04   559.27     0  00:20        0.04
  {01DBB9DC-D380-4493-9E3D-ABDEA2878493} JUNCTION     0.01     0.03   576.67     0  00:20        0.03
  {A79594DB-D383-4D5A-9B77-826F7B54151E} JUNCTION     0.01     0.03   578.05     0  00:20        0.03
  {19CDCDE8-843F-44E1-BD62-EDB3C6064314} JUNCTION     0.01     0.02   577.35     0  00:20        0.02
  {EEB55841-8EE0-4074-9458-8788597D898B} JUNCTION     0.01     0.02   577.20     0  00:20        0.02
  {3C7870F1-E206-4A6E-BB0B-4702AC7818EF} JUNCTION     0.14     2.05   580.03     0  00:12        1.80
  {B83FB09D-BFB1-48EE-9AFE-66D8505F5BA3} JUNCTION     0.01     0.05   585.42     0  00:20        0.05
  {B15A1BD7-1BE3-4E17-A200-BBC02E860828} JUNCTION     0.05     0.52   566.57     0  00:11        0.52
  {2450A6C4-F723-4D29-80FF-12E2B996B1E0} JUNCTION     0.00     0.00   566.41     0  00:20        0.00
  {E8F5B04C-7A64-4EFD-9BFE-BAFC85DEF98F} JUNCTION     0.05     0.44   566.35     0  00:11        0.40
  {FAAB3A9A-9239-4D47-BC75-54D7DF16C1EF} JUNCTION     0.11     1.47   567.79     0  00:19        1.47
  {91FA48FC-C23E-4A06-853C-7D9CD440046B} JUNCTION     0.07     1.18   567.99     0  00:11        1.01
  {9751FCE2-CCF5-42BA-ADCD-452757F3CE39} JUNCTION     0.02     0.07   562.30     0  00:20        0.07
  {6FAEEE64-EB8D-4EE6-AC7F-720E83BBFA28} JUNCTION     0.01     0.03   580.88     0  00:20        0.03
  {F1BEA964-04B9-4E05-A4E2-61286F1723E1} JUNCTION     0.00     0.00   580.58     0  00:16        0.00
  {5E898640-82C7-4661-B13B-7A7B4C05A810} JUNCTION     0.00     0.02   580.87     0  00:20        0.02
  {C108E76B-A0D6-4CFB-ACBF-522A84572FF3} JUNCTION     0.01     0.06   580.91     0  00:20        0.06
  {8AE531D8-B5A6-449E-A00E-414C60CC896F} JUNCTION     0.00     0.02   580.87     0  00:20        0.02
  {9FB964F7-B005-4AB0-9D2D-B8A44B0604FA} JUNCTION     0.00     0.01   580.86     0  00:17        0.01
  {35F48236-0421-4A58-8961-CB172833E47F} JUNCTION     0.01     0.05   580.90     0  00:20        0.05
  {EBFAD9C3-4D43-4212-AEE0-EE3FB5E3D127} JUNCTION     0.00     0.02   579.14     0  00:20        0.02
  {F2880128-A1CD-4C9A-ACB0-36FE30C910B2} JUNCTION     0.01     0.02   578.40     0  00:20        0.02
  {75A81DF8-3DD3-433F-B12B-ABA20FADC976} JUNCTION     0.00     0.01   578.31     0  00:20        0.01
  {E6672713-2174-49BE-AE0A-DA20B1210887} JUNCTION     0.01     0.06   578.33     0  00:20        0.06
  {0063F1DE-385A-49BA-BA11-DB6E46BFB3C9} JUNCTION     0.01     0.05   578.26     0  00:20        0.05
  {82BC863F-0C92-42C6-AB2A-C328D5C68B43} JUNCTION     0.00     0.00   580.85     0  00:20        0.00
  {87A603D9-2934-4401-A8D2-27E11584F121} JUNCTION     0.01     0.05   579.97     0  00:20        0.05
  {D2C05101-CF11-49E7-875A-883469E22F1D} JUNCTION     0.01     0.04   579.31     0  00:20        0.04
  {B5C40B79-112C-4EBF-B6AB-0A8BAEFD9BC2} JUNCTION     0.01     0.05   591.40     0  00:20        0.05
  {D8F72DA6-D399-4C5B-9BF3-3AAE31837218} JUNCTION     0.03     0.12   587.99     0  00:20        0.12
  {4475C023-065A-420F-A38C-B7DB79AC3801} JUNCTION     0.10     1.04   579.82     0  00:19        1.03
  {2DD4C342-EB33-45F5-B98A-CF42C32E70E7} JUNCTION     0.01     0.03   585.88     0  00:20        0.03
  {938890AA-44BE-4F7D-9C3F-500191454381} JUNCTION     0.01     0.04   585.41     0  00:20        0.04
  {241EDBAB-516A-48C1-A645-E08C347A08F2} JUNCTION     0.01     0.03   581.46     0  00:20        0.03
  {61F68B63-944F-4002-9BCA-4713072C587C} JUNCTION     0.00     0.02   581.32     0  00:20        0.02
  {1028169C-B2FE-4C54-8023-53095CA158DB} JUNCTION     0.00     0.02   579.66     0  00:20        0.02
  {6F0B6D9B-D939-4529-8ACF-3EA4A4778BF5} JUNCTION     0.01     0.04   574.44     0  00:20        0.04
  {A88A9A95-F523-40C0-8328-18E5C83AD227} JUNCTION     0.01     0.08   565.82     0  00:19        0.08
  {EA675D03-6D47-48CD-B362-32C988C44BA8} JUNCTION     0.00     0.01   568.30     0  00:15        0.01
  {CE5DF32E-1171-4838-A63C-32836AB82A14} JUNCTION     0.03     1.32   566.68     0  00:12        0.99
  {87BBA3FB-AB7B-4383-BB10-98DF6CDB0B20} JUNCTION     0.02     1.36   566.90     0  00:12        0.53
  {02D792D8-C70C-4399-AA49-C3C4A6957F2D} JUNCTION     0.02     0.09   566.26     0  00:20        0.09
  {BFFD2630-F05A-4D2B-BF3C-19DB460E2D3A} JUNCTION     0.00     0.01   566.45     0  00:20        0.01
  {B2A0B0E1-BA22-49A7-989F-927A863C0FB2} JUNCTION     0.02     0.11   560.29     0  00:20        0.11
  {E84D5A64-33A8-4B1A-9424-A078F3D4D864} JUNCTION     0.02     0.07   560.71     0  00:20        0.07
  {2D68C65C-F62D-4214-925B-85D287D72F98} JUNCTION     0.00     0.00   560.92     0  00:20        0.00
  {33551BCE-33F1-4975-B1BE-1C0BA87141F9} JUNCTION     0.10     0.71   572.87     0  00:11        0.71
  {C84B0DFB-56FE-4C7C-93A1-7273D54F57E3} JUNCTION     0.01     0.04   582.78     0  00:20        0.04
  {46360587-AC80-4E04-90A3-718FEFABB345} JUNCTION     0.00     0.02   580.31     0  00:17        0.02
  {29E2C11C-3B23-4B83-B68F-9E6C29283152} JUNCTION     0.00     0.00   581.86     0  00:20        0.00
  {354388AE-1A10-44DB-925A-D3E62EFC5D4E} JUNCTION     0.00     0.02   583.40     0  00:20        0.02
  {D1B3571D-67EB-4AD4-A5A4-0796BD80CB06} JUNCTION     0.00     0.01   576.60     0  00:16        0.01
  {9B708A57-AAA4-4C35-8D16-551CC6BC6C0F} JUNCTION     0.00     0.01   570.73     0  00:19        0.01
  {EB0EA2D8-6825-407F-9E49-D70E4D2EAFA7} JUNCTION     0.01     0.05   569.95     0  00:20        0.05
  {B952F0A8-CBFA-4948-9803-E79DCE0B95F4} JUNCTION     0.01     0.06   569.36     0  00:20        0.06
  {85A81988-84B9-4E96-B45E-DD29AB8A18FD} JUNCTION     0.01     0.05   569.75     0  00:20        0.05
  {6FDFA0BB-6CD7-4AD6-A090-6B3D7E3972CA} JUNCTION     0.01     0.05   569.55     0  00:20        0.05
  {4F74EC98-03D9-4E8A-8754-FA2124DBB834} JUNCTION     0.00     0.02   569.96     0  00:13        0.02
  {A8A3C2BB-E70A-45B6-940B-FC4711A4B4CA} JUNCTION     0.01     0.03   569.77     0  00:20        0.03
  {359FFF9D-9A3D-4050-81A5-CBDFC2FA9AE8} JUNCTION     0.00     0.02   569.55     0  00:20        0.02
  {47FA6C2A-2C09-46B8-8130-974482A955B6} JUNCTION     0.00     0.03   569.36     0  00:20        0.03
  {55D3677F-BD57-400B-B3D1-7FAFF95D6AF4} JUNCTION     0.00     0.01   574.76     0  00:20        0.01
  {214A467F-A553-4E7A-8BF7-EF585998B9D6} JUNCTION     0.00     0.01   574.17     0  00:20        0.01
  {682FB408-3450-47A4-B6CA-E97E1DEDB89F} JUNCTION     0.00     0.01   573.58     0  00:20        0.01
  {1FE680C4-9666-4567-9F09-48287911C582} JUNCTION     0.00     0.01   572.01     0  00:20        0.01
  {37055955-844F-49EF-8839-4864A919ACA9} JUNCTION     0.00     0.01   569.51     0  00:20        0.01
  {0645DDFB-A0DF-487D-A83E-7794A0BA04B1} JUNCTION     0.00     0.00   574.86     0  00:20        0.00
  {E7A9D65C-3882-45EF-875B-5F3BC9402378} JUNCTION     0.00     0.00   574.28     0  00:20        0.00
  {F15C5F60-6BCA-42FE-BDE6-88B9B05CC14D} JUNCTION     0.00     0.00   573.87     0  00:20        0.00
  {ECE2BB4E-85A4-419A-87FC-F95804FCBF39} JUNCTION     0.00     0.00   572.47     0  00:20        0.00
  {42BA9CEC-7113-4FE6-B00A-2DB3CC9A4F0A} JUNCTION     0.00     0.00   569.62     0  00:20        0.00
  {82E0E3ED-B5DB-4087-AFFC-C3C31C8E8756} JUNCTION     0.01     0.05   568.65     0  00:20        0.05
  {F66EB21D-6E25-463D-BE00-D42652453471} JUNCTION     0.01     0.06   569.16     0  00:20        0.06
  {89049A94-A38C-40DE-A11D-F680B5C6894A} JUNCTION     0.00     0.01   569.50     0  00:16        0.01
  {2EE1457B-5B25-4819-A407-8B14A431405F} JUNCTION     0.00     0.00   568.89     0  00:20        0.00
  {7A8F03BA-4C44-4CB5-9F52-93423137F13D} JUNCTION     0.01     0.04   570.82     0  00:20        0.04
  {7FC9FB87-1D2F-4619-9811-F2D7BFA3E1D7} JUNCTION     0.00     0.01   598.51     0  00:20        0.01
  {15E133A4-E3A4-4638-BF43-DBA5914BFD5D} JUNCTION     0.00     0.01   594.65     0  00:20        0.01
  {A91B9A5F-91E1-46BE-9A4A-4D7CD3E17104} JUNCTION     0.00     0.00   594.61     0  00:20        0.00
  {8B963830-8480-4245-84AB-E64B4DC6C365} JUNCTION     0.00     0.01   595.26     0  00:20        0.01
  {F87C8D95-6D64-4E7F-B1ED-9E0663C90D60} JUNCTION     0.00     0.00   598.69     0  00:20        0.00
  {52F5D5A1-DE04-4CF3-A609-7ADAD8D069CD} JUNCTION     0.02     0.09   591.26     0  00:20        0.09
  {1BA8E4EB-23AB-4877-B646-454994206926} JUNCTION     0.03     0.22   589.24     0  00:13        0.21
  {4BE56A30-3668-4A3B-A5ED-991D22163C1E} JUNCTION     0.00     0.02   589.33     0  00:20        0.02
  {BD39FF67-DDE3-40F3-91FF-04532813FE92} JUNCTION     0.01     0.03   589.24     0  00:20        0.03
  {E40F854F-F679-4282-9039-97D2B4E31A8A} JUNCTION     0.00     0.01   585.18     0  00:20        0.01
  {2F121223-5946-4CA4-88F6-B1446852A3B7} JUNCTION     0.00     0.01   584.89     0  00:20        0.01
  {F4DF7663-933B-4E47-BAF0-BA461F107CCB} JUNCTION     0.00     0.01   589.32     0  00:20        0.01
  {BEA10F69-29D4-431E-ADB2-61B66E21F0D6} JUNCTION     0.00     0.00   589.28     0  00:20        0.00
  {472B75F3-FD34-4BDE-8138-9D7275F4BEAB} JUNCTION     0.03     0.17   591.43     0  00:19        0.17
  {1EFB9405-54A9-4896-B014-12FE33E6AC6B} JUNCTION     0.00     0.01   593.11     0  00:20        0.01
  {4BC4D7F1-9C5A-4C0F-B709-2222D6CBE0A5} JUNCTION     0.00     0.00   593.51     0  00:20        0.00
  {459D3067-F0F3-4D16-959B-098422DD0633} JUNCTION     0.00     0.01   593.52     0  00:20        0.01
  {E01EA186-B0FA-463E-8A01-DF108D43C89F} JUNCTION     0.00     0.00   594.40     0  00:20        0.00
  {02872E3C-4EFC-4429-B708-AA660AD99D0F} JUNCTION     0.00     0.00   594.76     0  00:20        0.00
  {07EAF926-11AD-4C8A-AA1A-742337A509EB} JUNCTION     0.07     0.59   595.43     0  00:12        0.56
  {1DAC5B0C-DD6B-4DE2-8AFE-788CCEF601A5} JUNCTION     0.00     0.01   586.19     0  00:18        0.01
  {317B7FE0-3C1F-4AC9-A1E8-E2BDDE722A59} JUNCTION     0.00     0.00   585.52     0  00:20        0.00
  {48D59D04-83D9-480C-9580-559AF60D3C11} JUNCTION     0.00     0.01   586.41     0  00:11        0.01
  {8F4F7899-42AD-48DA-928A-05A7945E9F14} JUNCTION     0.00     0.00   582.80     0  00:20        0.00
  {CBAAEE0D-5FE7-49D6-9458-E92D455ECB82} JUNCTION     0.00     0.00   583.47     0  00:20        0.00
  {FF5D2469-E3ED-4413-BB0C-D570E88E26A3} JUNCTION     0.00     0.00   583.47     0  00:20        0.00
  {AB5F5C09-D7AC-401D-B045-50A7E319489F} JUNCTION     0.11     3.91   583.29     0  00:12        2.21
  {1EF7FCD4-D63E-4D14-B200-1D80322A6B63} JUNCTION     0.02     0.09   571.80     0  00:20        0.09
  {418A73FC-106D-4428-8F5F-5F0731AC1ABE} JUNCTION     0.01     0.02   570.65     0  00:20        0.02
  {0FA3CD76-1CE5-40A7-B3E2-AB3BC1053A21} JUNCTION     0.17     2.15   556.48     0  00:11        1.46
  {DDEE96B5-CEE1-4909-ACC7-8779F334D8B4} JUNCTION     0.29     2.07   555.76     0  00:11        2.07
  {E4D05F7B-99DC-483E-A179-70C2D312FE79} JUNCTION     0.30     1.86   553.76     0  00:11        1.86
  {CCE2CDD8-A85D-48C5-874B-BA8A10DAD849} JUNCTION     0.09     0.68   554.66     0  00:11        0.67
  {75DD839C-553B-4288-8CF2-F05324AC3943} JUNCTION     0.13     0.89   556.44     0  00:20        0.89
  {321F9562-6F7F-411D-803D-B06AF60CFBD4} JUNCTION     0.21     1.73   561.83     0  00:11        1.73
  {9EB78085-B9EF-4AE4-B4D4-317BF5111B66} JUNCTION     0.01     0.03   563.56     0  00:20        0.03
  {9EF30C61-B4D6-4836-A428-F57FB2CB0D73} JUNCTION     0.01     0.04   563.00     0  00:20        0.04
  {FCAB0A00-B254-45EE-A231-8B5003917A65} JUNCTION     0.01     0.04   562.53     0  00:20        0.04
  {68FD69A3-B567-4150-848F-3AA0CA862B8E} JUNCTION     0.12     1.48   562.26     0  00:11        1.33
  {9D2C6FD2-9FEE-4E57-9F71-9EF3D9D41260} JUNCTION     0.01     0.04   570.57     0  00:20        0.04
  {35F5E931-0CC0-4E4F-96C4-1E728347E965} JUNCTION     0.01     0.04   570.37     0  00:20        0.04
  {89CFF871-C663-4998-9689-A031417FF762} JUNCTION     0.20     1.72   562.09     0  00:11        1.72
  {B25D4E0A-D97E-4F71-9213-0B6AD333E826} JUNCTION     0.01     0.04   574.95     0  00:20        0.04
  {443F351D-2E56-4013-9460-116BFB328754} JUNCTION     0.01     0.05   590.68     0  00:20        0.05
  {8264C9DF-F1A6-4B91-9AC0-68C95D6D7E55} JUNCTION     0.11     0.98   563.43     0  00:11        0.89
  {76B570DA-3365-43B3-9411-EC41BC95EE78} JUNCTION     0.00     0.00   558.80     0  00:16        0.00
  {6931382A-65C9-4FDC-91B9-0009DD83B974} JUNCTION     0.06     0.17   592.01     0  00:20        0.17
  {48462822-8A06-4244-A36D-87017FE6E07D} JUNCTION     0.06     0.22   583.04     0  00:20        0.22
  {3BBDE5D1-80F1-4B47-9AAE-8983926FD330} JUNCTION     0.02     0.10   572.63     0  00:20        0.10
  {4BA5D93B-D8B9-451C-8F23-F9F4F9052C98} JUNCTION     0.04     0.54   572.02     0  00:19        0.53
  {C3FACE43-D64C-4F52-B9E4-9ECD090AB3BC} JUNCTION     0.06     0.72   571.89     0  00:19        0.70
  {6507012C-EC06-4DC9-B231-CCC2A55801E3} JUNCTION     0.03     0.14   581.51     0  00:20        0.14
  {ABE69F8E-4414-446C-ABA3-4B47379081E2} JUNCTION     0.01     0.04   580.74     0  00:20        0.04
  {50817A3F-F24B-48BA-896C-124893613B5F} JUNCTION     0.04     0.15   572.94     0  00:20        0.15
  {9DD0E74F-C3A9-40C2-B014-936608461A1D} JUNCTION     0.10     1.39   570.81     0  00:20        1.39
  {006509DD-9CD2-4577-8C48-4072BE75CBB8} JUNCTION     0.12     1.65   570.02     0  00:19        1.65
  {5282274F-BFE2-4468-A21B-9DEBF0D034C2} JUNCTION     0.03     1.21   566.44     0  00:12        1.10
  {6CB6CA21-3098-49DC-A63A-BCC486D16F81} JUNCTION     0.01     0.40   566.00     0  00:13        0.23
  {CF0C7344-7897-4F09-A8B1-8D7F01D8F206} JUNCTION     0.01     0.09   565.82     0  00:18        0.09
  {B9B8CCC9-19AF-4CD2-BFC5-519BDF0E94A9} JUNCTION     0.07     1.55   566.34     0  00:12        1.03
  {3CF6C0E9-6309-4D2E-93B5-5524E25B5E2F} JUNCTION     0.16     1.82   565.63     0  00:12        1.82
  {6B976BDD-FC08-48AA-A082-DA8B9FEACF4E} JUNCTION     0.17     1.78   563.79     0  00:11        1.78
  {27687AA1-8700-40C1-B315-BF23CDE5D3EE} JUNCTION     0.21     1.75   561.65     0  00:11        1.75
  {A3ECD94B-7FFE-4280-8484-F9310BD063AB} JUNCTION     0.20     1.67   558.82     0  00:18        1.66
  {61B0A445-46B5-46B6-8181-99EA5E6E6F51} JUNCTION     0.20     1.65   558.64     0  00:18        1.64
  {C89BFF86-4503-4509-B95A-58D8B9888E6F} JUNCTION     0.20     1.63   558.57     0  00:18        1.63
  {E4F17BEF-917F-41DB-A617-E03E8CE3161F} JUNCTION     0.10     0.69   554.34     0  00:18        0.68
  {8A8FDA9F-BC61-40CB-A884-09C68D13CE39} JUNCTION     0.09     1.81   554.56     0  00:11        0.79
  {95D880BA-C3CA-4CF6-8E19-D2A1085C3964} JUNCTION     0.30     1.87   553.85     0  00:11        1.87
  {2E151324-D716-4944-BC43-EAC693DD4829} JUNCTION     0.26     2.53   558.31     0  00:19        2.52
  {6EA684FB-5A89-410A-A200-C06C3ADA5EB6} JUNCTION     0.09     1.66   559.56     0  00:11        1.10
  {F3E0F560-5212-4E8E-A2A3-DD4267565CAA} JUNCTION     0.04     0.17   561.57     0  00:20        0.17
[...]
  {4715ECF8-A85E-4DD8-AA0E-D82F69569D7B}        0.15      0.15      0.35      0.01         0.01
  {56717BC7-FE5A-4011-9DA5-9068AD85418B}        0.08      0.08      0.11      0.01         0.01
  {ABB0EE71-77DA-4368-B2DC-0EB72819B805}        0.31      0.31      0.33      0.01         0.01
  {D67C6C2B-6F4C-4764-9AAC-FBE6D91CED11}        0.33      0.33      0.34      0.22         0.22
  {68F583BA-0247-4C5B-9D0F-BBFC53E3D4B1}        0.08      0.36      0.08      0.36         0.08
  {903CD29A-142B-4B2F-A5BA-F3ED7C76C75F}        0.06      0.06      0.08      0.01         0.01
  {A3F663F7-4980-48F9-9FA3-3177CBE29D8C}        0.17      0.38      0.17      0.38         0.17
  {086B41ED-90A3-4DC2-A649-91F3142E3652}        0.01      0.01      0.37      0.01         0.01
  {EF9C3938-924C-479D-9014-7512375EA3B9}        0.01      0.01      0.15      0.01         0.01
  {E6EBDB65-DCB7-4721-9163-0CA8F56A93ED}        0.01      0.01      0.19      0.01         0.01
  {0FFF45B8-524E-4739-B5AB-6C40FF533629}        0.32      0.36      0.32      0.34         0.32
  {5842B783-9083-4CF1-BEA5-22033F085F3D}        0.33      0.35      0.33      0.17         0.16
  {635ADEC9-96A3-4697-894B-3A8315D23871}        0.33      0.33      0.35      0.01         0.01
  {440DF564-4352-4569-92D5-F2CE6E55E488}        0.36      0.36      0.53      0.01         0.01
  {27AA73BA-910A-45D3-946D-78F7A4949D87}        0.36      0.36      0.53      0.01         0.01
  {FB4D0360-FF9C-404F-A57B-1E7DE6289DB6}        0.36      0.36      0.53      0.01         0.01
  {8C8D04C6-2A04-4577-85EE-309E6D8B61D7}        0.37      0.37      0.37      0.01         0.01
  {A125F868-6EF4-4A63-B681-B825EDD9AC93}        0.01      0.01      0.32      0.01         0.01
  {8C8EF577-3826-4BF1-8B47-E4824163E55E}        0.24      0.24      0.30      0.01         0.01
  {6837EB82-3F2A-4B9C-8528-345C01F15BC2}        0.32      0.32      0.45      0.01         0.01
  {67A3FC01-863E-46DA-AAE2-10FD3C68C234}        0.32      0.32      0.43      0.01         0.01
  {49FDCAF4-F333-4A4A-B127-496149EC5678}        0.13      0.13      0.33      0.07         0.07
  {1601A9B7-F621-4340-A838-3587C66C6609}        0.01      0.01      0.17      0.01         0.01
  {3841025F-7940-4642-BFA4-EE059A05200A}        0.01      0.01      0.32      0.01         0.01
  {2D611CF4-31B0-4276-A756-31603986F563}        0.01      0.06      0.01      0.09         0.01
  {AA8DC9E9-BCF1-47A7-BDAA-B77719C9369C}        0.13      0.13      0.34      0.01         0.01
  {2263AD1F-BD01-43CD-B9FC-1F5C0F281860}        0.13      0.13      0.34      0.01         0.01
  {C3678618-C374-4A17-B9EE-5AEFE1A1E6C8}        0.34      0.34      0.36      0.01         0.01
  {79ABB17C-FD7E-4AFD-9B62-CD685C0C607C}        0.01      0.01      0.16      0.01         0.01
  {53F19DF4-D289-4D11-8D17-BBA47C15183E}        0.01      0.01      0.17      0.01         0.01
  {D06E0B96-55EE-42F0-9092-892C5F25B723}        0.17      0.17      0.18      0.01         0.01
  {746C215E-C84E-4FE3-9C7B-4AECFFD07DEC}        0.16      0.16      0.17      0.01         0.01
  {5413245B-1D61-4C3F-B48C-5DF290240E51}        0.13      0.13      0.17      0.01         0.01
  {365F767C-4A66-4E02-A3AB-51BCCA4FD113}        0.16      0.16      0.17      0.01         0.01
  {DE3490E1-94BD-4CCB-B700-F7CEC443C22C}        0.15      0.15      0.16      0.01         0.01
  {607B0FEE-8E97-48F9-B74C-A40FC9AE8D68}        0.16      0.16      0.18      0.01         0.01
  {E7E05229-E7FD-4238-84AA-502F8D352AEF}        0.18      0.18      0.33      0.01         0.01
  {9C1B9D6E-B9E8-4404-A8C3-B01DB620FEF7}        0.17      0.17      0.17      0.01         0.01
  {491FA655-80FF-4CD1-9973-0AF27F95AB59}        0.17      0.17      0.18      0.01         0.01
  {D0097300-7426-457E-8F30-A6F39657BFF4}        0.12      0.12      0.15      0.01         0.01
  {2AE4DA80-5A6E-44F4-A5E3-066ED200E79E}        0.19      0.19      0.35      0.01         0.01
  {E1511D34-7E74-47AA-B203-6BE1A65A6A77}        0.23      0.23      0.35      0.01         0.01
  {BDE047DD-253A-46EA-A982-D668FBCE6DFC}        0.14      0.14      0.15      0.12         0.12
  {43458D1D-9E26-4451-9ADE-5639A8F24BEA}        0.11      0.11      0.14      0.01         0.01
  {D3B9E655-04FE-4CAA-A1EF-82EACB992603}        0.15      0.15      0.16      0.12         0.12
  {B0FF1D40-73C9-4144-8606-ABC605E00B73}        0.14      0.14      0.17      0.01         0.01
  {297057DD-C236-4D86-948A-27D877453932}        0.16      0.16      0.35      0.13         0.13
  {52C6EB51-A371-4DC4-97BB-4C29E3C620FA}        0.33      0.33      0.34      0.01         0.01
  {830EF2DD-04A8-4819-8619-563725F96C0B}        0.34      0.34      0.34      0.01         0.01
  {B6B8B9CD-09E7-47B7-BB1A-044882F785D8}        0.35      0.35      0.36      0.01         0.01
  {CADB98E5-C5D7-445A-AC1B-6873E7C11832}        0.12      0.12      0.14      0.01         0.01
  {DFD08AB1-ADBE-48DC-AAC7-64AA77839832}        0.01      0.01      0.12      0.01         0.01
  {94AA686F-5857-4E0D-A809-860FE68753CA}        0.14      0.14      0.20      0.01         0.01
  {590DDB8B-4031-469F-A633-0FFFEDCA1FCD}        0.14      0.14      0.14      0.85         0.14
  {95D39B7A-8616-4205-B2CB-FE16AAD7D0B6}        0.01      0.18      0.01      0.21         0.01
  {A31B1538-8159-4FAA-824B-358C73312C7F}        0.01      0.01      0.16      0.01         0.01
  {BA4C7ECB-F370-44F9-8D8A-ED64D1FB830F}        0.01      0.01      0.17      0.01         0.01
  {D5B54048-3DBF-4753-A82C-F58D5B07DAA7}        0.01      0.01      0.18      0.01         0.01
  {79C2A4C1-4F5A-4A62-B59D-B378A30D046D}        0.01      0.01      0.11      0.01         0.01
  {2A67075F-1460-4C0B-843C-4E47B66DDEC3}        0.13      0.13      0.14      0.14         0.13
  {1B1817FC-FE3E-4363-B79B-66D67B27D841}        0.31      0.31      0.33      0.15         0.15
  {AF9DBAEE-2F3A-4F0C-8527-656F319B5AB4}        0.34      0.34      0.34      0.01         0.01
  {A8CE54B8-6090-4D82-B724-0732AD81EBF8}        0.34      0.34      0.35      0.01         0.01
  {56C8CA0B-679F-4F8E-9B18-048D39A21543}        0.35      0.35      0.36      0.15         0.15
  {C75F2085-BD61-4686-8B90-0A928F53E022}        0.30      0.30      0.59      0.01         0.01
  {7FC0EF26-32C4-4E9E-AF13-7A2FCCE2AF0F}        0.07      0.07      0.12      0.01         0.01
  {666FF314-5784-47C8-92A1-D763A6B57AAE}        0.31      0.31      0.33      0.01         0.01
  {0265019B-3999-475D-8324-B4A700682744}        0.33      0.33      0.35      0.01         0.01
  {09DBBC25-B00B-48F7-94D1-884BF375ADB5}        0.32      0.32      0.33      0.01         0.01
  {2DDAA704-49E4-4903-9636-B673C64DA9B3}        0.31      0.31      0.35      0.01         0.01
  {28C76ABE-2155-4E58-A967-3475F722344A}        0.01      0.15      0.01      0.17         0.01
  {0F8264D8-5D78-4FBB-A603-42B80702384D}        0.01      0.01      0.37      0.01         0.01
  {FACBBA0F-0FF5-43EC-AFF7-BB65431FC54C}        0.33      0.33      0.38      0.01         0.01
  {F9D23C37-90F2-4E76-9DE2-0A2AFFF529DD}        0.01      0.18      0.01      0.22         0.01
  {62C52A3D-1991-400D-BCF0-C5AB0A2B31F8}        0.01      0.15      0.01      0.16         0.01
  {4E485788-D1EB-4D76-A985-1E4D24994827}        0.32      0.32      0.35      0.01         0.01
  {41B7406A-92F5-43A8-A87E-3E61D1E3385B}        0.34      0.34      0.65      0.01         0.01
  {F031B103-1506-44AF-AF09-DEEF55ECACBD}        0.35      0.35      0.65      0.06         0.06
  {39F4919C-0F2D-42DE-9944-7A4B4698EB67}        0.01      0.01      0.34      0.01         0.01
  {8D23F97D-C4A7-4E6C-BA9A-4E6F2EFAB7D7}        0.34      0.34      0.53      0.01         0.01
  {60F1D32E-0246-4FE7-B3E5-3731CD19D726}        0.32      0.32      0.36      0.01         0.01
  {87FCEC7B-B092-4732-8D17-E5EFF3A455FF}        0.33      0.33      0.35      0.01         0.01
  {E83FBF8B-1C32-430C-9543-28EA439EEC5E}        0.33      0.33      0.41      0.01         0.01
  {61969518-C64C-4FC2-B080-3BE9330062D2}        0.13      0.13      0.30      0.01         0.01
  {16876AB0-CB67-470C-8A83-641810D6E090}        0.21      0.21      0.59      0.01         0.01
  {EB8BBF62-E18F-4337-ACB8-AA088B1A32F2}        0.01      0.01      0.17      0.01         0.01
  {76F04744-C03E-451E-98E4-2C130106301E}        0.01      0.01      0.17      0.01         0.01
  {ECA8A204-4438-487F-AB40-79D4C8F2A2D9}        0.01      0.01      0.37      0.01         0.01
  {9D0FDD3D-945A-4C70-9B18-2467E48F56E0}        0.01      0.10      0.01      0.13         0.01
  {2F681EA1-F05B-41B1-9FF1-3FE9CB1E9287}        0.01      0.01      0.13      0.01         0.01
  {FDA441EF-E938-47E8-A8C5-C7E07DF94B72}        0.01      0.01      0.13      0.01         0.01
  {68C7EDE9-AFE2-49A4-AACD-727223D9B311}        0.01      0.01      0.16      0.01         0.01
  {4BE1772B-BDD7-442F-8DD1-DC3C61264B58}        0.33      0.33      0.38      0.33         0.32
  {5DF77AC5-3A02-4BE2-BB48-89097903C3C8}        0.16      0.16      0.32      0.01         0.01
  {1B275846-5B11-4DDA-8C42-E7E85B7A4119}        0.30      0.30      0.32      0.01         0.01
  {2E0AD0BF-00BB-4839-8DC3-409FB24979C7}        0.01      0.01      0.16      0.01         0.01
  {CF830E84-D049-4427-AE3A-815655A7336E}        0.01      0.01      0.15      0.01         0.01
  {24146009-E799-420B-A8F8-81AC7F13EB3F}        0.01      0.01      0.17      0.01         0.01
  {1A67AD15-77E5-497C-94F0-C334DFCD3740}        0.06      0.06      0.06      0.01         0.01
  {DAA75029-9AA1-46E0-8F60-52E1D7669231}        0.06      0.06      0.09      0.01         0.01
  {2D94137F-3085-400A-977D-5314E0FEAD71}        0.01      0.01      0.14      0.01         0.01
  {3AAC2437-B242-40A7-8E33-2599CDA88928}        0.01      0.01      0.14      0.01         0.01
  {5705B739-06BF-4D18-9E84-90865CE54456}        0.14      0.14      0.16      0.01         0.01
  {4E8883C0-2DAB-4594-9F6B-51D8A97389AE}        0.16      0.16      0.16      0.01         0.01
  {52E63F52-34DD-4231-984C-BBD6F37E166E}        0.01      0.01      0.15      0.01         0.01
  {00D0BF0B-D8FE-4D0E-B4AB-856EA11DAA42}        0.01      0.01      0.12      0.01         0.01
  {E74CA55E-F162-4CE4-B7EF-03F3F9D5C9E6}        0.15      0.15      0.17      0.01         0.01
  {48355D49-E1A3-4552-8E8C-285F5697A604}        0.16      0.16      0.34      0.01         0.01
  {8F5AD95E-66A7-4CFE-A6A4-FB57CFD470E3}        0.17      0.17      0.35      0.01         0.01
  {4458A51C-14DD-41C7-A9EF-A67DE458083C}        0.18      0.18      0.35      0.01         0.01
  {FB844021-D744-412A-98B4-97C9F3F62C19}        0.20      0.20      0.35      0.01         0.01
  {FBB91CD8-7C71-4786-94AE-83A1767801F9}        0.13      0.13      0.16      0.01         0.01
  {DFCDC5CE-CEEC-4B1C-82B6-05503CFA3DD8}        0.17      0.17      0.55      0.01         0.01
  {77AB0234-2DE0-4D60-A60C-4A08A8CEFBB0}        0.01      0.01      0.52      0.01         0.01
  {6E68C1AC-8A6A-40DB-BE3C-BE4F0CF06798}        0.14      0.14      0.52      0.01         0.01
  {F66556B1-A877-43D8-88F5-CC61837FE460}        0.37      0.37      0.97      0.01         0.01
  {51676429-A282-452D-AE73-496A4DAFBECC}        0.36      0.36      0.51      0.01         0.01
  {DDBE76C7-00C9-450B-965C-F24A47440FBE}        0.45      0.45      0.97      0.01         0.01
  {CFBB905D-841A-4CEF-898F-6ACE47FB2D09}        0.01      0.01      0.17      0.01         0.01
  {0CE97B45-A02B-40F4-A310-E46111F51747}        0.12      0.12      0.14      0.01         0.01
  {F513815B-254E-4BB5-A40F-3BC3446CBD08}        0.16      0.16      0.18      0.01         0.01
  {6982FA49-5AE1-4EC6-8BC7-FA17A9E0E8CE}        0.01      0.01      0.18      0.01         0.01
  {069F9403-3258-45DC-B76A-AE217E72118E}        0.16      0.16      0.31      0.01         0.01
  {32B1A2DD-75CD-4431-9188-535DE1F6AC59}        0.01      0.01      0.34      0.01         0.01
  {DC22DF02-04D4-44AA-96B5-E29AE10AD4FF}        0.34      0.34      0.37      0.01         0.01
  {2AA4372F-BC25-4499-9117-28A2FCC7269A}        0.28      0.28      0.58      0.01         0.01
  {8DFB895A-6675-4BDE-910E-F6BD440786A6}        0.01      0.01      0.15      0.01         0.01
  {578FD2D2-3EEB-4488-8B67-3599A3892E34}        0.01      0.01      0.15      0.01         0.01
  {66AEBDB3-07E0-4BE1-A4BA-C7DDC312A2A2}        0.01      0.01      0.08      0.12         0.01
  {755CE3D8-1355-4B31-B54D-B39619F3820F}        0.01      0.01      0.08      0.01         0.01
  {910D95DB-9CA4-4969-A6E8-61CDF504ED02}        0.01      0.01      0.15      0.01         0.01
  {5EA66B3E-362E-4DA0-8D01-D6F22DC245AA}        0.01      0.01      0.30      0.01         0.01
  {FB9F010C-52A4-44B1-9EEC-C61460BB7860}        0.01      0.32      0.01      0.32         0.01
  {93BC2C2A-EEF6-4CF6-9D62-20176889D0CD}        0.01      0.01      0.34      0.01         0.01
  {55BA0FC1-B66A-469C-ABD8-54F96E022D71}        0.19      0.19      0.21      0.18         0.18
  {AF233E6E-90B1-4E63-818B-0A7A2617F5C8}        0.01      0.01      0.18      0.01         0.01
  {888259A2-BF9B-4FD4-BB92-3F5B997173A7}        0.19      0.22      0.19      0.23         0.19
  {26820912-91AD-4ECD-A813-334C7DFB8B05}        0.15      0.15      0.19      0.15         0.15
  {B24186AD-535F-4080-9C27-74882107C276}        0.15      0.15      0.37      0.01         0.01
  {37E03524-5C02-44D3-A29F-056EE9EEF981}        0.01      0.01      0.54      0.01         0.01
  {AA929BDE-EBA2-4198-B4B5-87AA7E07B9CE}        0.01      0.01      0.17      0.01         0.01
  {70825023-1141-49CF-A488-8AA285D72C90}        0.01      0.01      0.37      0.01         0.01
  {6AEB9952-D671-48DC-A9B9-9039BD0753A2}        0.01      0.01      0.32      0.01         0.01
  {93EE21A1-348F-435C-9B46-D139554A52C6}        0.01      0.01      0.31      0.01         0.01
  {EC0900C7-5731-4972-9C69-0276B07A2A26}        0.34      0.34      0.65      0.01         0.01
  {0884A119-47B0-414F-952F-4837822166D4}        0.17      0.17      0.63      0.01         0.01
  {63081A24-5A8D-4790-8FF4-7F81BD88EC86}        0.32      0.32      0.36      0.01         0.01
  {D797F77F-DA9F-4986-99C6-1B3742EEFC1A}        0.01      0.01      0.28      0.01         0.01
  {7851AAC3-1D01-44B4-989C-0EBB19BF99CC}        0.28      0.28      0.34      0.01         0.01
  {06E93D4D-7C0D-45B5-A7C9-2986EFAD70DB}        0.01      0.01      0.17      0.01         0.01
  {7EB5C8B9-44C4-4885-94B5-3132C6B8FBFE}_u        0.44      0.44      0.45      0.50         0.44
  {7EB5C8B9-44C4-4885-94B5-3132C6B8FBFE}_l        0.01      0.45      0.01      0.50         0.01
  {81ECEB8D-98C1-4FA4-88A4-B5FAC77CEB17}_u        0.35      0.35      0.36      0.01         0.01
  {81ECEB8D-98C1-4FA4-88A4-B5FAC77CEB17}_l        0.36      0.36      0.43      0.01         0.01
  {F9347E73-C482-490D-90E4-71140B083775}_l        0.20      0.21      0.20      0.22         0.20
  {F9347E73-C482-490D-90E4-71140B083775}_u_u        0.14      0.14      0.15      0.01         0.01
  {D2EF27FA-0B74-4618-8DD4-11C7D38C19DB}_l        0.23      0.23      0.25      0.16         0.15
  {D2EF27FA-0B74-4618-8DD4-11C7D38C19DB}_u_u        0.19      0.19      0.20      0.15         0.13
  {842F3CB5-9936-4DD8-B854-518C0539871D}_u        0.17      0.17      0.18      0.13         0.13
  {D10093A5-081C-4F2A-A12B-DDA6DCC30FB8}_u        0.16      0.16      0.17      0.11         0.11
  {D10093A5-081C-4F2A-A12B-DDA6DCC30FB8}_l        0.17      0.17      0.17      0.12         0.12
  {BBA7DFD9-72CC-4B80-A78E-C5338D46538B}_l        0.16      0.16      0.16      0.01         0.01
  {BBA7DFD9-72CC-4B80-A78E-C5338D46538B}_u_u        0.11      0.11      0.14      0.01         0.01
  {F29327D6-6139-4F28-9B91-0143674BBE5C}_l        0.01      0.01      0.11      0.01         0.01
  {35EE35F6-B8AA-4C7B-8A0E-12FE42B1B991}_l        0.14      0.14      0.16      0.01         0.01
  {2C029BA1-B144-4E3C-9807-F10A53C0A6B2}_u        0.34      0.34      0.35      0.17         0.17
  {2C029BA1-B144-4E3C-9807-F10A53C0A6B2}_l        0.35      0.35      0.36      0.17         0.17
  {788F8E89-92BF-4EDF-ADE0-77269A4F673A}_l        0.37      0.37      0.44      0.01         0.01
  {F9347E73-C482-490D-90E4-71140B083775}_u_l_u        0.15      0.15      0.16      0.01         0.01
  {7A344F50-9CCD-4273-9D82-D938DF03952C}_l_u        0.33      0.33      0.33      0.33         0.33
  {7A344F50-9CCD-4273-9D82-D938DF03952C}_l_l        0.14      0.33      0.14      0.34         0.14
  {F74CF796-27D7-4866-B9D3-A82286A4FF42}_u_u        0.25      0.25      0.32      0.15         0.15
  {F74CF796-27D7-4866-B9D3-A82286A4FF42}_u_l        0.32      0.32      0.32      0.01         0.01
  {35EE35F6-B8AA-4C7B-8A0E-12FE42B1B991}_u_l        0.01      0.01      0.14      0.01         0.01
  {5D5B4467-0151-4336-B6AB-5F8482521211}_l_u        0.01      0.01      0.09      0.01         0.01
  {5D5B4467-0151-4336-B6AB-5F8482521211}_l_l        0.09      0.09      0.10      0.01         0.03
  {BBA7DFD9-72CC-4B80-A78E-C5338D46538B}_u_l_u        0.14      0.14      0.14      0.01         0.01
  {BBA7DFD9-72CC-4B80-A78E-C5338D46538B}_u_l_l_u        0.14      0.14      0.15      0.01         0.01
  {BBA7DFD9-72CC-4B80-A78E-C5338D46538B}_u_l_l_l        0.15      0.15      0.16      0.01         0.01
  {842F3CB5-9936-4DD8-B854-518C0539871D}_l_u        0.18      0.18      0.18      0.14         0.14
  {842F3CB5-9936-4DD8-B854-518C0539871D}_l_l        0.18      0.18      0.19      0.15         0.15
  {D2EF27FA-0B74-4618-8DD4-11C7D38C19DB}_u_l_u        0.20      0.20      0.21      0.15         0.15
  {D2EF27FA-0B74-4618-8DD4-11C7D38C19DB}_u_l_l        0.21      0.21      0.23      0.15         0.15
  {F74CF796-27D7-4866-B9D3-A82286A4FF42}_l_u        0.32      0.32      0.32      0.01         0.01
  {F74CF796-27D7-4866-B9D3-A82286A4FF42}_l_l        0.32      0.32      0.33      0.01         0.01
  {7A344F50-9CCD-4273-9D82-D938DF03952C}_u_u_u        0.32      0.33      0.33      0.32         0.32
  {7A344F50-9CCD-4273-9D82-D938DF03952C}_u_u_l        0.33      0.33      0.33      0.33         0.32
  {7A344F50-9CCD-4273-9D82-D938DF03952C}_u_l_u        0.33      0.33      0.33      0.33         0.31
  {7A344F50-9CCD-4273-9D82-D938DF03952C}_u_l_l_u        0.33      0.33      0.33      0.33         0.32
  {7A344F50-9CCD-4273-9D82-D938DF03952C}_u_l_l_l        0.33      0.33      0.33      0.33         0.33
  {F9347E73-C482-490D-90E4-71140B083775}_u_l_l_u        0.16      0.16      0.21      0.01         0.01
  {F9347E73-C482-490D-90E4-71140B083775}_u_l_l_l        0.21      0.21      0.21      0.20         0.20
  {788F8E89-92BF-4EDF-ADE0-77269A4F673A}_u_u        0.36      0.36      0.37      0.32         0.32
  {788F8E89-92BF-4EDF-ADE0-77269A4F673A}_u_l        0.37      0.37      0.37      0.32         0.32
  {CDED25E9-190C-4D1D-8D58-769EA575FD7F}_l        0.33      0.33      0.34      0.01         0.01
  {CDED25E9-190C-4D1D-8D58-769EA575FD7F}_u_u        0.01      0.01      0.15      0.01         0.01
  {CDED25E9-190C-4D1D-8D58-769EA575FD7F}_u_l        0.15      0.15      0.33      0.01         0.01
  {9CB46948-DFD2-47E9-A231-CDD15021F12D}_u        0.32      0.32      0.33      0.01         0.01
  {9CB46948-DFD2-47E9-A231-CDD15021F12D}_l_u        0.33      0.33      0.33      0.01         0.01
  {9CB46948-DFD2-47E9-A231-CDD15021F12D}_l_l        0.33      0.33      0.35      0.01         0.01
  {7CE3C7AE-1EA5-4C4C-A234-7FC92FDBCC44}_u        0.01      0.01      0.32      0.01         0.01
  {7CE3C7AE-1EA5-4C4C-A234-7FC92FDBCC44}_l        0.32      0.32      0.36      0.01         0.01
  

  Analysis begun on:  Sun Dec  4 12:26:00 2022
  Analysis ended on:  Sun Dec  4 12:26:04 2022
  Total elapsed time: 00:00:04